*Heading
** Job name: Adaptivepress-iter1 Model name: Model-1
** Generated by: Abaqus/CAE 2022
*Preprint, echo=NO, model=NO, history=NO, contact=NO
**
** PARTS
**
*Part, name=layer
*Node
      1,           0., 0.0700000003, 0.00200000009
      2,           0., -0.0700000003, 0.00200000009
      3,           0., 0.0700000003,           0.
      4,           0., 0.0599999987,           0.
      5,           0., -0.0599999987, 0.00200000009
      6,           0., 0.0599999987, 0.00200000009
      7, 0.00199892349, 0.0699714571, 0.00200000009
      8, 0.00399621669, 0.0698858351, 0.00200000009
      9, 0.0059902505, 0.0697432235, 0.00200000009
     10, 0.00797939859, 0.0695437193, 0.00200000009
     11, 0.00996203907, 0.0692875013, 0.00200000009
     12, 0.0119365538, 0.0689747706, 0.00200000009
     13, 0.0139013324, 0.0686057806, 0.00200000009
     14,  0.015854774, 0.0681808367, 0.00200000009
     15, 0.0177952833, 0.0677002817, 0.00200000009
     16, 0.0197212789, 0.0671645105, 0.00200000009
     17, 0.0216311887, 0.0665739551, 0.00200000009
     18, 0.0235234573, 0.0659291074, 0.00200000009
     19, 0.0253965389, 0.0652304813, 0.00200000009
     20, 0.0272489078, 0.0644786581, 0.00200000009
** ... 17037 like lines cut
*Element, type=C3D10
   1,  2690,   702,  2149,   701,  2947,  2946,  2945,  2949,  2948,  2950
   2,  2690,   702,  2194,  2149,  2947,  2952,  2951,  2945,  2946,  2953
   3,   545,  1245,  2691,  1226,  2956,  2955,  2954,  2958,  2957,  2959
   4,  2204,  1262,  2345,  2165,  2962,  2961,  2960,  2964,  2963,  2965
   5,  2692,  1824,  2223,   704,  2968,  2967,  2966,  2970,  2969,  2971
   6,  2693,   918,   814,   540,  2974,  2973,  2972,  2976,  2975,  2977
   7,  2694,  2210,   451,  1278,  2980,  2979,  2978,  2982,  2981,  2983
   8,  2694,  2217,   715,  2219,  2986,  2985,  2984,  2988,  2987,  2989
   9,  2694,   716,  2210,  2219,  2991,  2990,  2980,  2988,  2992,  2993
  10,  2695,  1517,  2409,  2302,  2996,  2995,  2994,  2998,  2997,  2999
  11,  2695,  2696,  2051,  2317,  3002,  3001,  3000,  3004,  3003,  3005
  12,  2695,  1794,  2317,  2302,  3007,  3006,  3004,  2998,  3008,  3009
  13,  2695,  2696,  1144,  2051,  3002,  3011,  3010,  3000,  3001,  3012
  14,  2695,  1517,  2302,  1381,  2996,  2997,  2998,  3014,  3013,  3015
  15,  2695,  2696,  1362,  1144,  3002,  3017,  3016,  3010,  3011,  3018
  16,  2697,  2088,  2698,  2241,  3021,  3020,  3019,  3023,  3022,  3024
  17,  2697,  2698,  1376,  2241,  3019,  3026,  3025,  3023,  3024,  3027
  18,  2697,   901,  1782,  2237,  3030,  3029,  3028,  3032,  3031,  3033
  19,  2697,  2237,  2029,  2088,  3032,  3035,  3034,  3021,  3036,  3037
  20,  2697,  1782,  2029,  2237,  3028,  3038,  3034,  3032,  3033,  3035
** ... 8460 like lines cut
*Nset, nset=Set-1, generate
     1,  17057,      1
*Elset, elset=Set-1, generate
    1,  8480,     1
*Nset, nset="contact surface"
     1,     2,     3,     7,     8,     9,    10,    11,    12,    13,    14,    15,    16,    17,    18,    19
    20,    21,    22,    23,    24,    25,    26,    27,    28,    29,    30,    31,    32,    33,    34,    35
    36,    37,    38,    39,    40,    41,    42,    43,    44,    45,    46,    47,    48,    49,    50,    51
    52,    53,    54,    55,    56,    57,    58,    59,    60,    61,    62,    63,    64,    65,    66,    67
    68,    69,    70,    71,    72,    73,    74,    75,    76,    77,    78,    79,    80,    81,    82,    83
    84,    85,    86,    87,    88,    89,    90,    91,    92,    93,    94,    95,    96,    97,    98,    99
   100,   101,   102,   103,   104,   105,   106,   107,   108,   109,   110,   111,   112,   113,   114,   115
   116,   117,   118,   119,   120,   121,   122,   123,   124,   125,   126,   127,   128,   129,   130,   131
   132,   133,   134,   135,   136,   137,   138,   139,   140,   141,   142,   143,   144,   145,   146,   147
   148,   149,   150,   151,   152,   153,   154,   155,   156,   157,   158,   159,   160,   161,   162,   163
   164,   165,   166,   167,   168,   169,   170,   171,   172,   173,   174,   175,   176,   177,   178,   179
   180,   181,   182,   183,   184,   185,   186,   187,   188,   189,   190,   191,   192,   193,   194,   195
   196,   197,   198,   199,   200,   201,   202,   203,   204,   205,   206,   207,   208,   209,   210,   211
   212,   213,   214,   215,   216,   217,   218,   219,   220,   221,   222,   223,   224,   225,   226,   227
   228,   229,   230,   231,   232,   233,   234,   235,   236,   237,   238,   239,   240,   241,   242,   243
   244,   245,   246,   247,   248,   249,   250,   251,   252,   253,   254,   255,   256,   257,   258,   259
   260,   261,   262,   263,   264,   265,   266,   267,   268,   269,   270,   271,   272,   273,   274,   275
   276,   277,   278,   279,   280,   281,   282,   283,   284,   285,   286,   287,   288,   289,   290,   291
   292,   293,   294,   295,   296,   297,   298,   299,   300,   301,   302,   303,   304,   305,   306,   307
   308,   309,   310,   311,   312,   313,   314,   315,   316,   317,   318,   319,   320,   321,   322,   323
** ... 63 like lines cut
*Elset, elset="contact surface"
   87,   94,   98,  207,  209,  338,  386,  433,  497,  525,  629,  679,  811,  844,  847, 1023
 1067, 1177, 1197, 1198, 1446, 1447, 1450, 1590, 1651, 1654, 1657, 1706, 1734, 1759, 1765, 1780
 1878, 1971, 2082, 2157, 2282, 2315, 2392, 2665, 2836, 2930, 2962, 2977, 3045, 3114, 3142, 3258
 3335, 3393, 3405, 3451, 3489, 3602, 3660, 3673, 3739, 3741, 3784, 3786, 3828, 3849, 3877, 3934
 3939, 3971, 3975, 3994, 4010, 4016, 4067, 4082, 4102, 4107, 4117, 4122, 4125, 4135, 4216, 4232
 4234, 4239, 4254, 4279, 4293, 4323, 4338, 4365, 4376, 4386, 4401, 4417, 4462, 4463, 4474, 4500
 4502, 4506, 4511, 4516, 4525, 4532, 4562, 4578, 4579, 4596, 4606, 4615, 4620, 4631, 4640, 4641
 4668, 4713, 4726, 4742, 4754, 4797, 4804, 4808, 4831, 4832, 4853, 4855, 4866, 4902, 4907, 4952
 4964, 4969, 4970, 5002, 5006, 5008, 5036, 5051, 5052, 5056, 5067, 5080, 5082, 5097, 5108, 5126
 5140, 5145, 5173, 5186, 5188, 5190, 5202, 5221, 5222, 5252, 5259, 5264, 5274, 5282, 5291, 5297
 5310, 5319, 5343, 5391, 5397, 5406, 5436, 5445, 5451, 5456, 5458, 5480, 5489, 5495, 5514, 5536
 5539, 5549, 5550, 5563, 5567, 5578, 5591, 5595, 5614, 5627, 5633, 5636, 5653, 5662, 5670, 5683
 5689, 5695, 5709, 5723, 5739, 5764, 5778, 5783, 5805, 5817, 5853, 5878, 5906, 5909, 5914, 5921
 5988, 5992, 5996, 6009, 6015, 6021, 6043, 6053, 6057, 6059, 6067, 6075, 6093, 6104, 6117, 6130
 6132, 6139, 6153, 6163, 6165, 6167, 6184, 6189, 6204, 6217, 6218, 6240, 6259, 6266, 6270, 6271
 6297, 6362, 6377, 6407, 6411, 6430, 6435, 6437, 6449, 6468, 6478, 6486, 6508, 6514, 6527, 6553
 6586, 6610, 6614, 6631, 6649, 6655, 6664, 6669, 6678, 6703, 6706, 6732, 6758, 6780, 6782, 6803
 6809, 6832, 6837, 6839, 6848, 6854, 6864, 6865, 6874, 6877, 6883, 6888, 6907, 6923, 6931, 6945
 6974, 6989, 6993, 7010, 7011, 7016, 7018, 7030, 7037, 7042, 7043, 7052, 7055, 7058, 7059, 7065
 7070, 7083, 7108, 7109, 7111, 7114, 7120, 7129, 7139, 7147, 7149, 7151, 7157, 7162, 7172, 7178
** ... 8 like lines cut
** Section: elastomer
*Solid Section, elset=Set-1, material=elastomer
,
*End Part
**  
*Part, name=plate
*Node
      1,           0., 0.0375000015, 0.00200000009
      2,           0., 0.0384999998, 0.00200000009
      3,           0., 0.0395000018, 0.00200000009
      4,           0., 0.0405000001, 0.00200000009
      5,           0., 0.0414999984, 0.00200000009
      6,           0., 0.0425000004, 0.00200000009
      7,           0., 0.0375000015, 0.00100000005
      8,           0., 0.0384999998, 0.00100000005
      9,           0., 0.0395000018, 0.00100000005
     10,           0., 0.0405000001, 0.00100000005
     11,           0., 0.0414999984, 0.00100000005
     12,           0., 0.0425000004, 0.00100000005
     13,           0., 0.0375000015,           0.
     14,           0., 0.0384999998,           0.
     15,           0., 0.0395000018,           0.
     16,           0., 0.0405000001,           0.
     17,           0., 0.0414999984,           0.
     18,           0., 0.0425000004,           0.
     19, 0.00100000005, 0.0375000015, 0.00200000009
     20, 0.00100000005, 0.0384999998, 0.00200000009
** ... 1078 like lines cut
*Element, type=C3D8R
  1,   19,   20,   26,   25,    1,    2,    8,    7
  2,   20,   21,   27,   26,    2,    3,    9,    8
  3,   21,   22,   28,   27,    3,    4,   10,    9
  4,   22,   23,   29,   28,    4,    5,   11,   10
  5,   23,   24,   30,   29,    5,    6,   12,   11
  6,   25,   26,   32,   31,    7,    8,   14,   13
  7,   26,   27,   33,   32,    8,    9,   15,   14
  8,   27,   28,   34,   33,    9,   10,   16,   15
  9,   28,   29,   35,   34,   10,   11,   17,   16
 10,   29,   30,   36,   35,   11,   12,   18,   17
 11,   37,   38,   44,   43,   19,   20,   26,   25
 12,   38,   39,   45,   44,   20,   21,   27,   26
 13,   39,   40,   46,   45,   21,   22,   28,   27
 14,   40,   41,   47,   46,   22,   23,   29,   28
 15,   41,   42,   48,   47,   23,   24,   30,   29
 16,   43,   44,   50,   49,   25,   26,   32,   31
 17,   44,   45,   51,   50,   26,   27,   33,   32
 18,   45,   46,   52,   51,   27,   28,   34,   33
 19,   46,   47,   53,   52,   28,   29,   35,   34
 20,   47,   48,   54,   53,   29,   30,   36,   35
** ... 580 like lines cut
*Nset, nset=Set-1, generate
    1,  1098,     1
*Elset, elset=Set-1, generate
   1,  600,    1
*Nset, nset=contact_surface, generate
    6,  1098,     6
*Elset, elset=contact_surface, generate
   5,  600,    5
*Nset, nset=all_nodes, generate
    1,  1098,     1
*Nset, nset=one_node
 546,
** Section: steel
*Solid Section, elset=Set-1, material=steel
,
*End Part
**  
**
** ASSEMBLY
**
*Assembly, name=Assembly
**  
*Instance, name=plate-1, part=plate
*End Instance
**  
*Instance, name=layer-1, part=layer
        0.03,       0.1125,           0.
*End Instance
**  
*Nset, nset=Set-2, instance=layer-1
     4,     5,     6,   444,   445,   446,   447,   448,   449,   450,   451,   452,   453,   454,   455,   456
   457,   458,   459,   460,   461,   462,   463,   464,   465,   466,   467,   468,   469,   470,   471,   472
   473,   474,   475,   476,   477,   478,   479,   480,   481,   482,   483,   484,   485,   486,   487,   488
   489,   490,   491,   492,   493,   494,   495,   496,   497,   498,   499,   500,   501,   502,   503,   504
   505,   506,   507,   508,   509,   510,   511,   512,   513,   514,   515,   516,   517,   518,   519,   520
   521,   522,   523,   524,   525,   526,   527,   528,   529,   530,   531,   532,   533,   534,   535,   536
   537,   538,   539,   540,   541,   542,   543,   544,   545,   546,   547,   548,   549,   550,   551,   552
   553,   554,   555,   556,   557,   558,   559,   560,   561,   562,   563,   564,   565,   566,   567,   568
   569,   570,   571,   572,   573,   574,   575,   576,   577,   578,   579,   580,   581,   582,   583,   584
   585,   586,   587,   588,   589,   590,   591,   592,   593,   594,   595,   596,   597,   598,   599,   600
   601,   602,   603,   604,   605,   606,   607,   608,   609,   610,   611,   612,   613,   614,   615,   616
   617,   618,   619,   620,   621,   622,   623,   624,   625,   626,   627,   628,   629,   630,   631,   632
   633,   634,   635,   636,   637,   638,   639,   640,   641,   642,   643,   644,   645,   646,   647,   648
   649,   650,   651,   652,   653,   654,   655,   656,   657,   658,   659,   660,   661,   662,   663,   664
   665,   666,   667,   668,   669,   670,   671,   672,   673,   674,   675,   676,   677,   678,   679,   680
   681,   682,   683,   684,   685,   686,   687,   688,   689,   690,   691,   692,   693,   694,   695,   696
   697,   698,   699,   700,   701,   702,   703,   704,   705,   706,   707,   708,   709,   710,   711,   712
   713,   714,   715,   716,   717,   718,   719,   720,   721,   722,   723,   724,   725,   726,   727,   728
   729,   730,   731,   732,   733,   734,   735,   736,   737,   738,   739,   740,   741,   742,   743,   744
   745,   746,   747,   748,   749,   750,   751,   752,   753,   754,   755,   756,   757,   758,   759,   760
** ... 51 like lines cut
*Elset, elset=Set-2, instance=layer-1
   37,  163,  175,  180,  182,  185,  205,  335,  340,  380,  483,  560,  563,  578,  603,  607
  702,  733,  735,  749,  751,  787,  819,  875,  876,  878,  916,  924,  965,  982,  983, 1029
 1040, 1041, 1159, 1171, 1295, 1304, 1321, 1347, 1349, 1393, 1405, 1406, 1484, 1504, 1529, 1530
 1614, 1672, 1717, 1729, 1788, 1791, 1801, 1812, 1820, 1826, 1842, 1843, 1845, 1847, 1854, 1855
 1860, 1877, 1890, 1891, 1893, 1905, 1917, 1918, 1925, 1926, 1945, 1946, 1959, 1967, 1979, 1984
 1991, 1992, 2013, 2014, 2016, 2128, 2242, 2247, 2268, 2270, 2293, 2364, 2370, 2411, 2412, 2482
 2505, 2534, 2539, 2552, 2563, 2565, 2618, 2619, 2623, 2826, 2840, 2842, 2843, 3080, 3205, 3207
 3212, 3216, 3220, 3246, 3300, 3349, 3354, 3356, 3360, 3396, 3397, 3401, 3442, 3466, 3469, 3473
 3535, 3538, 3542, 3561, 3578, 3589, 3606, 3608, 3612, 3613, 3615, 3640, 3675, 3680, 3686, 3699
 3716, 3720, 3731, 3737, 3771, 3794, 3796, 3799, 3806, 3807, 3813, 3814, 3821, 3843, 3844, 3845
 3846, 3879, 3892, 3918, 3921, 3938, 3949, 3950, 3974, 3978, 4012, 4022, 4024, 4061, 4110, 4131
 4151, 4195, 4197, 4200, 4206, 4211, 4217, 4253, 4260, 4269, 4277, 4317, 4342, 4414, 4415, 4455
 4459, 4468, 4469, 4478, 4549, 4568, 4604, 4682, 4684, 4758, 4762, 4778, 4802, 4830, 4854, 4864
 4873, 4879, 4886, 4887, 4894, 4899, 4913, 4932, 4934, 4940, 4941, 4957, 4967, 4986, 4988, 5009
 5014, 5020, 5023, 5041, 5091, 5103, 5105, 5117, 5130, 5135, 5166, 5171, 5178, 5179, 5205, 5206
 5209, 5214, 5217, 5229, 5234, 5287, 5341, 5357, 5395, 5413, 5431, 5433, 5443, 5450, 5453, 5468
 5474, 5475, 5478, 5483, 5487, 5493, 5504, 5560, 5584, 5589, 5597, 5622, 5631, 5640, 5655, 5661
 5663, 5666, 5669, 5738, 5741, 5785, 5823, 5840, 5854, 5925, 5932, 6014, 6207, 6211, 6226, 6268
 6273, 6296, 6301, 6312, 6338, 6346, 6351, 6358, 6378, 6379, 6404, 6538, 6548, 6551, 6570, 6587
 6605, 6609, 6636, 6675, 6744, 6767, 6784, 6876, 6881, 6893, 6933, 7004, 7084, 7204, 7252, 7266
** ... 4 like lines cut
*Nset, nset=Set-3, instance=plate-1, generate
    6,  1098,     6
*Elset, elset=Set-3, instance=plate-1, generate
   5,  600,    5
*Nset, nset=Set-4, instance=plate-1, generate
    6,  1098,     6
*Elset, elset=Set-4, instance=plate-1, generate
   5,  600,    5
*Nset, nset=Set-5, instance=plate-1, generate
    6,  1098,     6
*Elset, elset=Set-5, instance=plate-1, generate
   5,  600,    5
*Nset, nset=Set-6, instance=plate-1, generate
    6,  1098,     6
*Elset, elset=Set-6, instance=plate-1, generate
   5,  600,    5
*Nset, nset=Set-7, instance=plate-1, generate
    6,  1098,     6
*Elset, elset=Set-7, instance=plate-1, generate
   5,  600,    5
*Nset, nset=Set-8, instance=plate-1, generate
    6,  1098,     6
*Elset, elset=Set-8, instance=plate-1, generate
   5,  600,    5
*Nset, nset=Set-9, instance=plate-1, generate
    6,  1098,     6
*Elset, elset=Set-9, instance=plate-1, generate
   5,  600,    5
*Nset, nset=Set-10, instance=layer-1
     4,     5,     6,   444,   445,   446,   447,   448,   449,   450,   451,   452,   453,   454,   455,   456
   457,   458,   459,   460,   461,   462,   463,   464,   465,   466,   467,   468,   469,   470,   471,   472
   473,   474,   475,   476,   477,   478,   479,   480,   481,   482,   483,   484,   485,   486,   487,   488
   489,   490,   491,   492,   493,   494,   495,   496,   497,   498,   499,   500,   501,   502,   503,   504
   505,   506,   507,   508,   509,   510,   511,   512,   513,   514,   515,   516,   517,   518,   519,   520
   521,   522,   523,   524,   525,   526,   527,   528,   529,   530,   531,   532,   533,   534,   535,   536
   537,   538,   539,   540,   541,   542,   543,   544,   545,   546,   547,   548,   549,   550,   551,   552
   553,   554,   555,   556,   557,   558,   559,   560,   561,   562,   563,   564,   565,   566,   567,   568
   569,   570,   571,   572,   573,   574,   575,   576,   577,   578,   579,   580,   581,   582,   583,   584
   585,   586,   587,   588,   589,   590,   591,   592,   593,   594,   595,   596,   597,   598,   599,   600
   601,   602,   603,   604,   605,   606,   607,   608,   609,   610,   611,   612,   613,   614,   615,   616
   617,   618,   619,   620,   621,   622,   623,   624,   625,   626,   627,   628,   629,   630,   631,   632
   633,   634,   635,   636,   637,   638,   639,   640,   641,   642,   643,   644,   645,   646,   647,   648
   649,   650,   651,   652,   653,   654,   655,   656,   657,   658,   659,   660,   661,   662,   663,   664
   665,   666,   667,   668,   669,   670,   671,   672,   673,   674,   675,   676,   677,   678,   679,   680
   681,   682,   683,   684,   685,   686,   687,   688,   689,   690,   691,   692,   693,   694,   695,   696
   697,   698,   699,   700,   701,   702,   703,   704,   705,   706,   707,   708,   709,   710,   711,   712
   713,   714,   715,   716,   717,   718,   719,   720,   721,   722,   723,   724,   725,   726,   727,   728
   729,   730,   731,   732,   733,   734,   735,   736,   737,   738,   739,   740,   741,   742,   743,   744
   745,   746,   747,   748,   749,   750,   751,   752,   753,   754,   755,   756,   757,   758,   759,   760
** ... 51 like lines cut
*Elset, elset=Set-10, instance=layer-1
   37,  163,  175,  180,  182,  185,  205,  335,  340,  380,  483,  560,  563,  578,  603,  607
  702,  733,  735,  749,  751,  787,  819,  875,  876,  878,  916,  924,  965,  982,  983, 1029
 1040, 1041, 1159, 1171, 1295, 1304, 1321, 1347, 1349, 1393, 1405, 1406, 1484, 1504, 1529, 1530
 1614, 1672, 1717, 1729, 1788, 1791, 1801, 1812, 1820, 1826, 1842, 1843, 1845, 1847, 1854, 1855
 1860, 1877, 1890, 1891, 1893, 1905, 1917, 1918, 1925, 1926, 1945, 1946, 1959, 1967, 1979, 1984
 1991, 1992, 2013, 2014, 2016, 2128, 2242, 2247, 2268, 2270, 2293, 2364, 2370, 2411, 2412, 2482
 2505, 2534, 2539, 2552, 2563, 2565, 2618, 2619, 2623, 2826, 2840, 2842, 2843, 3080, 3205, 3207
 3212, 3216, 3220, 3246, 3300, 3349, 3354, 3356, 3360, 3396, 3397, 3401, 3442, 3466, 3469, 3473
 3535, 3538, 3542, 3561, 3578, 3589, 3606, 3608, 3612, 3613, 3615, 3640, 3675, 3680, 3686, 3699
 3716, 3720, 3731, 3737, 3771, 3794, 3796, 3799, 3806, 3807, 3813, 3814, 3821, 3843, 3844, 3845
 3846, 3879, 3892, 3918, 3921, 3938, 3949, 3950, 3974, 3978, 4012, 4022, 4024, 4061, 4110, 4131
 4151, 4195, 4197, 4200, 4206, 4211, 4217, 4253, 4260, 4269, 4277, 4317, 4342, 4414, 4415, 4455
 4459, 4468, 4469, 4478, 4549, 4568, 4604, 4682, 4684, 4758, 4762, 4778, 4802, 4830, 4854, 4864
 4873, 4879, 4886, 4887, 4894, 4899, 4913, 4932, 4934, 4940, 4941, 4957, 4967, 4986, 4988, 5009
 5014, 5020, 5023, 5041, 5091, 5103, 5105, 5117, 5130, 5135, 5166, 5171, 5178, 5179, 5205, 5206
 5209, 5214, 5217, 5229, 5234, 5287, 5341, 5357, 5395, 5413, 5431, 5433, 5443, 5450, 5453, 5468
 5474, 5475, 5478, 5483, 5487, 5493, 5504, 5560, 5584, 5589, 5597, 5622, 5631, 5640, 5655, 5661
 5663, 5666, 5669, 5738, 5741, 5785, 5823, 5840, 5854, 5925, 5932, 6014, 6207, 6211, 6226, 6268
 6273, 6296, 6301, 6312, 6338, 6346, 6351, 6358, 6378, 6379, 6404, 6538, 6548, 6551, 6570, 6587
 6605, 6609, 6636, 6675, 6744, 6767, 6784, 6876, 6881, 6893, 6933, 7004, 7084, 7204, 7252, 7266
** ... 4 like lines cut
*Nset, nset=Set-11, instance=plate-1, generate
    6,  1098,     6
*Elset, elset=Set-11, instance=plate-1, generate
   5,  600,    5
*Nset, nset=Set-12, instance=plate-1, generate
    6,  1098,     6
*Elset, elset=Set-12, instance=plate-1, generate
   5,  600,    5
*Nset, nset=Set-13, instance=layer-1, generate
     1,  17057,      1
*Elset, elset=Set-13, instance=layer-1, generate
    1,  8480,     1
*Nset, nset=m_Set-1, instance=layer-1
 2,
*Nset, nset=_PickedSet34, internal, instance=layer-1, generate
     1,  17057,      1
*Elset, elset=_PickedSet34, internal, instance=layer-1, generate
    1,  8480,     1
*Nset, nset=_PickedSet35, internal, instance=layer-1, generate
     1,  17057,      1
*Elset, elset=_PickedSet35, internal, instance=layer-1, generate
    1,  8480,     1
*Nset, nset=_PickedSet36, internal, instance=layer-1, generate
     1,  17057,      1
*Elset, elset=_PickedSet36, internal, instance=layer-1, generate
    1,  8480,     1
*Nset, nset=_PickedSet37, internal, instance=layer-1, generate
     1,  17057,      1
*Elset, elset=_PickedSet37, internal, instance=layer-1, generate
    1,  8480,     1
*Nset, nset=_PickedSet38, internal, instance=layer-1, generate
     1,  17057,      1
*Elset, elset=_PickedSet38, internal, instance=layer-1, generate
    1,  8480,     1
*Nset, nset=_PickedSet39, internal, instance=layer-1, generate
     1,  17057,      1
*Elset, elset=_PickedSet39, internal, instance=layer-1, generate
    1,  8480,     1
*Nset, nset=_PickedSet40, internal, instance=layer-1, generate
     1,  17057,      1
*Elset, elset=_PickedSet40, internal, instance=layer-1, generate
    1,  8480,     1
*Surface, type=NODE, name=m_Set-1_CNS_, internal
m_Set-1, 1.
*Surface, type=NODE, name=plate-1_all_nodes_CNS_, internal
plate-1.all_nodes, 1.
** Constraint: Constraint-1
*Tie, name=Constraint-1, adjust=yes
plate-1_all_nodes_CNS_, m_Set-1_CNS_
*Elset, elset=__interaction_general_gcs0_8_S4, internal, instance=layer-1
   87,   94,   98,  497,  629,  844,  847, 1067, 1177, 1197, 1450, 1590, 1651, 1654, 1734, 1759
 1780, 2665, 3258, 3405, 4216, 5406, 5514, 5670, 5909, 6021, 6189, 6649, 6706, 7055, 7058, 7213
 7344, 7607, 7935, 7987, 8077, 8371
*Elset, elset=__interaction_general_gcs0_8_S3, internal, instance=layer-1
  207,  338,  386,  433,  525,  679, 1198, 1446, 1447, 1657, 1706, 1765, 1878, 2157, 2282, 2315
 2392, 2836, 2930, 2962, 2977, 3045, 3142, 3393, 3489, 3673, 3739, 3784, 3786, 3828, 3849, 3877
 3934, 3939, 3971, 3975, 3994, 4010, 4016, 4067, 4082, 4102, 4107, 4117, 4122, 4125, 4135, 4232
 4234, 4239, 4254, 4279, 4293, 4338, 4365, 4376, 4401, 4417, 4462, 4474, 4500, 4502, 4506, 4511
 4516, 4525, 4532, 4562, 4578, 4579, 4596, 4606, 4615, 4620, 4631, 4640, 4641, 4713, 4726, 4742
 4797, 4804, 4808, 4831, 4832, 4853, 4855, 4866, 4902, 4907, 4952, 4964, 4969, 4970, 5006, 5008
 5036, 5051, 5052, 5056, 5067, 5080, 5097, 5126, 5140, 5145, 5173, 5186, 5188, 5202, 5221, 5252
 5259, 5264, 5274, 5282, 5291, 5297, 5319, 5343, 5391, 5436, 5445, 5451, 5456, 5458, 5480, 5489
 5495, 5539, 5549, 5550, 5563, 5567, 5578, 5591, 5595, 5614, 5633, 5636, 5653, 5683, 5689, 5695
 5709, 5723, 5739, 5764, 5778, 5783, 5805, 5817, 5853, 5878, 5914, 5921, 5988, 5992, 5996, 6009
 6015, 6043, 6053, 6059, 6067, 6075, 6093, 6104, 6117, 6130, 6132, 6153, 6163, 6165, 6167, 6184
 6204, 6217, 6240, 6259, 6266, 6270, 6271, 6362, 6377, 6407, 6411, 6430, 6435, 6437, 6478, 6486
 6508, 6514, 6553, 6586, 6610, 6614, 6631, 6655, 6664, 6669, 6703, 6758, 6780, 6782, 6832, 6839
 6848, 6864, 6865, 6877, 6883, 6888, 6907, 6923, 6945, 6974, 6989, 6993, 7010, 7011, 7016, 7018
 7030, 7037, 7042, 7043, 7052, 7059, 7070, 7083, 7108, 7109, 7111, 7114, 7120, 7129, 7139, 7147
 7149, 7151, 7157, 7162, 7172, 7178, 7193, 7194, 7232, 7239, 7242, 7260, 7261, 7265, 7271, 7288
 7296, 7300, 7325, 7341, 7358, 7369, 7371, 7384, 7386, 7388, 7400, 7402, 7408, 7450, 7462, 7468
 7476, 7481, 7487, 7492, 7524, 7546, 7558, 7559, 7620, 7632, 7634, 7658, 7694, 7698, 7700, 7701
 7702, 7709, 7713, 7726, 7728, 7736, 7737, 7746, 7750, 7756, 7757, 7758, 7764, 7765, 7781, 7789
 7791, 7806, 7811, 7838, 7912, 7954, 7975, 7978, 7979, 7985, 7986, 7997, 8001, 8004, 8016, 8021
 8033, 8042, 8061, 8095, 8110, 8137, 8151, 8161, 8210, 8228, 8260, 8261, 8262, 8275, 8281, 8288
 8294, 8310, 8341, 8354, 8355, 8379, 8450, 8451, 8456, 8471, 8472, 8477, 8479
*Elset, elset=__interaction_general_gcs0_8_S1, internal, instance=layer-1
  209,  811, 1023, 1971, 2082, 3114, 3335, 3602, 4323, 4754, 5002, 5082, 5222, 5310, 5397, 5627
 5662, 6057, 6218, 6297, 6449, 6468, 6678, 6732, 6809, 6837, 6874, 6931, 7065, 7338, 7345, 7536
 7594, 7679, 8124, 8170
*Elset, elset=__interaction_general_gcs0_8_S2, internal, instance=layer-1
 3451, 3660, 3741, 4386, 4463, 4668, 5108, 5190, 5536, 5906, 6139, 6527, 6803, 6854, 7478, 7526
 8025,
*Surface, type=ELEMENT, name=_interaction_general_gcs0_8, internal
__interaction_general_gcs0_8_S4, S4
__interaction_general_gcs0_8_S3, S3
__interaction_general_gcs0_8_S2, S2
__interaction_general_gcs0_8_S1, S1
*Elset, elset=__interaction_general_gcs0_9_S3, internal, instance=layer-1
   37,  163,  175,  180,  182,  185,  205,  335,  340,  560,  563,  578,  603,  607,  702,  733
  735,  749,  751,  787,  875,  878,  916,  924,  983, 1029, 1041, 1159, 1171, 1321, 1347, 1349
 1393, 1405, 1406, 1504, 1529, 1614, 1672, 1717, 1729, 1788, 1826, 1843, 1845, 1847, 1860, 1890
 1893, 1917, 1925, 1959, 1967, 1979, 1984, 2013, 2014, 2293, 2370, 2619, 2826, 3080, 3207, 3356
 3360, 3397, 3466, 3561, 3606, 3608, 3613, 3680, 3731, 3771, 3806, 3807, 3844, 3845, 3921, 3938
 3950, 4012, 4022, 4110, 4151, 4197, 4211, 4217, 4269, 4342, 4414, 4415, 4455, 4468, 4549, 4604
 4682, 4758, 4802, 4886, 4894, 4899, 4913, 4957, 4986, 5009, 5014, 5091, 5105, 5117, 5178, 5206
 5209, 5217, 5433, 5450, 5478, 5493, 5504, 5560, 5631, 5738, 5854, 5925, 6268, 6301, 6312, 6358
 6404, 6538, 6784, 6881, 7084, 7510, 7527, 7533, 7575, 7589, 7615, 7621, 7680, 7690, 7692, 7717
 7851, 8221, 8322, 8413, 8431, 8437
*Elset, elset=__interaction_general_gcs0_9_S4, internal, instance=layer-1
  380,  483,  965,  982, 1304, 1801, 1918, 1945, 1946, 2411, 2505, 2840, 2842, 3205, 3212, 3300
 3354, 3401, 3542, 3578, 3716, 3720, 3737, 3794, 3799, 3813, 3814, 3974, 4131, 4195, 4200, 4317
 4478, 4864, 4887, 5205, 5214, 5287, 5431, 5453, 5474, 5584, 5589, 6226, 6296, 6338, 6876, 7528
 7685, 7840, 7842, 7861, 8022, 8120, 8176, 8197, 8252
*Elset, elset=__interaction_general_gcs0_9_S1, internal, instance=layer-1
  819, 1040, 1484, 1812, 1842, 1854, 1877, 1905, 1992, 2242, 2268, 2270, 2412, 2552, 2563, 2565
 3216, 3220, 3396, 3473, 3612, 3640, 3675, 3699, 3843, 3846, 3879, 3918, 3978, 4024, 4206, 4277
 4684, 4830, 4854, 4940, 4941, 4988, 5020, 5041, 5103, 5135, 5171, 5234, 5357, 5395, 5468, 5475
 5622, 5640, 5661, 5663, 5669, 5741, 5840, 6014, 6273, 6346, 6548, 6551, 6570, 6587, 6605, 6609
 6675, 6744, 6893, 6933, 7004, 7204, 7252, 7266, 7295, 7422, 7566, 7578, 7643, 7688, 7708, 7825
 7877, 7897, 7967, 7991, 8044, 8114, 8207, 8293, 8405, 8419
*Elset, elset=__interaction_general_gcs0_9_S2, internal, instance=layer-1
  876, 1295, 1530, 1791, 1820, 1855, 1891, 1926, 1991, 2016, 2128, 2247, 2364, 2482, 2534, 2539
 2618, 2623, 2843, 3246, 3349, 3442, 3469, 3535, 3538, 3589, 3615, 3686, 3796, 3821, 3892, 3949
 4061, 4253, 4260, 4459, 4469, 4568, 4762, 4778, 4873, 4879, 4932, 4934, 4967, 5023, 5130, 5166
 5179, 5229, 5341, 5413, 5443, 5483, 5487, 5597, 5655, 5666, 5785, 5823, 5932, 6207, 6211, 6351
 6378, 6379, 6636, 6767, 7514, 7537, 7837, 8072, 8105, 8180, 8217, 8257, 8342, 8356, 8476
*Surface, type=ELEMENT, name=_interaction_general_gcs0_9, internal
__interaction_general_gcs0_9_S3, S3
__interaction_general_gcs0_9_S4, S4
__interaction_general_gcs0_9_S2, S2
__interaction_general_gcs0_9_S1, S1
*End Assembly
** 
** MATERIALS
** 
*Material, name=elastomer
*Density
1175.,
*Hyperelastic, neo hooke
 1.2e+06,0.
*Material, name=steel
*Density
7850.,
*Elastic
 2.1e+11, 0.3
** 
** INTERACTION PROPERTIES
** 
*Surface Interaction, name=frict
1.,
*Friction, slip tolerance=0.005
 0.3,
** 
** BOUNDARY CONDITIONS
** 
** Name: fix all nodes Type: Symmetry/Antisymmetry/Encastre
*Boundary
plate-1.all_nodes, XSYMM
** Name: fix inner layer Type: Symmetry/Antisymmetry/Encastre
*Boundary
Set-10, ENCASTRE
** 
** INTERACTIONS
** 
** Interaction: interaction_general
*Contact
*Contact Inclusions, ALL EXTERIOR
*Contact Property Assignment
 ,  , frict
*Surface Property Assignment, property=GEOMETRIC CORRECTION
_interaction_general_gcs0_8, Circumferential, 0.03, 0.1125, 0.,  0.03, 0.1125, 1.
_interaction_general_gcs0_9, Circumferential, 0.03, 0.1125, 0.,  0.03, 0.1125, 1.
** ----------------------------------------------------------------
** 
** STEP: step1000
** 
*Step, name=step1000, nlgeom=YES, inc=10
*Static
0.01, 0.1, 1e-06, 0.01
** 
** BOUNDARY CONDITIONS
** 
** Name: step1000 Type: Displacement/Rotation
*Boundary
Set-11, 1, 1
Set-11, 2, 2, 0.000273
Set-11, 3, 3
Set-11, 4, 4
Set-11, 5, 5
Set-11, 6, 6
** 
** OUTPUT REQUESTS
** 
*Restart, write, frequency=0
** 
** FIELD OUTPUT: F-Output-1
** 
*Output, field
*Node Output
CF, RF, U
*Element Output, directions=YES
LE, PE, PEEQ, PEMAG, S
*Contact Output
CDISP, CFORCE, CSTRESS
** 
** FIELD OUTPUT:  from REMESHING RULE: RemeshingRule-1
** 
*Output, field, frequency=99999
*Element Output, elset=_PickedSet34, directions=YES
ENDENERI, ENDEN, ELEN, EVOL
** 
** HISTORY OUTPUT: H-Output-4
** 
*Output, history
*Contact Output
CAREA, CFT1, CFT2, CFT3, CFTM
** 
** HISTORY OUTPUT: H-Output-3
** 
*Contact Output, nset=layer-1."contact surface"
CAREA, CFT1, CFT2, CFT3, CFTM
** 
** HISTORY OUTPUT: H-Output-1
** 
*Contact Output, nset=plate-1.contact_surface
CAREA, CFT1, CFT2, CFT3, CFTM
** 
** HISTORY OUTPUT: H-Output-2
** 
*Node Output, nset=plate-1.one_node
U2, 
*End Step
** ----------------------------------------------------------------
** 
** STEP: step1250
** 
*Step, name=step1250, nlgeom=YES, inc=10
*Static
0.01, 0.1, 1e-06, 0.01
** 
** BOUNDARY CONDITIONS
** 
** Name: fix all nodes Type: Symmetry/Antisymmetry/Encastre
*Boundary, op=NEW
plate-1.all_nodes, XSYMM
** Name: fix inner layer Type: Symmetry/Antisymmetry/Encastre
*Boundary, op=NEW
Set-10, ENCASTRE
** Name: step1000 Type: Displacement/Rotation
*Boundary, op=NEW
** Name: step1250 Type: Displacement/Rotation
*Boundary, op=NEW
Set-12, 1, 1
Set-12, 2, 2, 0.000308
Set-12, 3, 3
Set-12, 4, 4
Set-12, 5, 5
Set-12, 6, 6
** 
** OUTPUT REQUESTS
** 
*Restart, write, frequency=0
** 
** FIELD OUTPUT: F-Output-1
** 
*Output, field
*Node Output
CF, RF, U
*Element Output, directions=YES
LE, PE, PEEQ, PEMAG, S
*Contact Output
CDISP, CFORCE, CSTRESS
** 
** HISTORY OUTPUT: H-Output-4
** 
*Output, history
*Contact Output
CAREA, CFT1, CFT2, CFT3, CFTM
** 
** HISTORY OUTPUT: H-Output-3
** 
*Contact Output, nset=layer-1."contact surface"
CAREA, CFT1, CFT2, CFT3, CFTM
** 
** HISTORY OUTPUT: H-Output-1
** 
*Contact Output, nset=plate-1.contact_surface
CAREA, CFT1, CFT2, CFT3, CFTM
** 
** HISTORY OUTPUT: H-Output-2
** 
*Node Output, nset=plate-1.one_node
U2, 
*End Step
** ----------------------------------------------------------------
** 
** STEP: step1500
** 
*Step, name=step1500, nlgeom=YES, inc=10
*Static
0.01, 0.1, 1e-06, 0.01
** 
** BOUNDARY CONDITIONS
** 
** Name: fix all nodes Type: Symmetry/Antisymmetry/Encastre
*Boundary, op=NEW
plate-1.all_nodes, XSYMM
** Name: fix inner layer Type: Symmetry/Antisymmetry/Encastre
*Boundary, op=NEW
Set-10, ENCASTRE
** Name: step1250 Type: Displacement/Rotation
*Boundary, op=NEW
** Name: step1500 Type: Displacement/Rotation
*Boundary, op=NEW
Set-5, 1, 1
Set-5, 2, 2, 0.000343
Set-5, 3, 3
Set-5, 4, 4
Set-5, 5, 5
Set-5, 6, 6
** 
** OUTPUT REQUESTS
** 
*Restart, write, frequency=0
** 
** FIELD OUTPUT: F-Output-1
** 
*Output, field
*Node Output
CF, RF, U
*Element Output, directions=YES
LE, PE, PEEQ, PEMAG, S
*Contact Output
CDISP, CFORCE, CSTRESS
** 
** HISTORY OUTPUT: H-Output-4
** 
*Output, history
*Contact Output
CAREA, CFT1, CFT2, CFT3, CFTM
** 
** HISTORY OUTPUT: H-Output-3
** 
*Contact Output, nset=layer-1."contact surface"
CAREA, CFT1, CFT2, CFT3, CFTM
** 
** HISTORY OUTPUT: H-Output-1
** 
*Contact Output, nset=plate-1.contact_surface
CAREA, CFT1, CFT2, CFT3, CFTM
** 
** HISTORY OUTPUT: H-Output-2
** 
*Node Output, nset=plate-1.one_node
U2, 
*End Step
** ----------------------------------------------------------------
** 
** STEP: step1750
** 
*Step, name=step1750, nlgeom=YES, inc=10
*Static
0.01, 0.1, 1e-06, 0.01
** 
** BOUNDARY CONDITIONS
** 
** Name: fix all nodes Type: Symmetry/Antisymmetry/Encastre
*Boundary, op=NEW
plate-1.all_nodes, XSYMM
** Name: fix inner layer Type: Symmetry/Antisymmetry/Encastre
*Boundary, op=NEW
Set-10, ENCASTRE
** Name: step1500 Type: Displacement/Rotation
*Boundary, op=NEW
** Name: step1750 Type: Displacement/Rotation
*Boundary, op=NEW
Set-6, 1, 1
Set-6, 2, 2, 0.000392
Set-6, 3, 3
Set-6, 4, 4
Set-6, 5, 5
Set-6, 6, 6
** 
** OUTPUT REQUESTS
** 
*Restart, write, frequency=0
** 
** FIELD OUTPUT: F-Output-1
** 
*Output, field
*Node Output
CF, RF, U
*Element Output, directions=YES
LE, PE, PEEQ, PEMAG, S
*Contact Output
CDISP, CFORCE, CSTRESS
** 
** HISTORY OUTPUT: H-Output-4
** 
*Output, history
*Contact Output
CAREA, CFT1, CFT2, CFT3, CFTM
** 
** HISTORY OUTPUT: H-Output-3
** 
*Contact Output, nset=layer-1."contact surface"
CAREA, CFT1, CFT2, CFT3, CFTM
** 
** HISTORY OUTPUT: H-Output-1
** 
*Contact Output, nset=plate-1.contact_surface
CAREA, CFT1, CFT2, CFT3, CFTM
** 
** HISTORY OUTPUT: H-Output-2
** 
*Node Output, nset=plate-1.one_node
U2, 
*End Step
** ----------------------------------------------------------------
** 
** STEP: step2000
** 
*Step, name=step2000, nlgeom=YES, inc=10
*Static
0.01, 0.1, 1e-06, 0.01
** 
** BOUNDARY CONDITIONS
** 
** Name: fix all nodes Type: Symmetry/Antisymmetry/Encastre
*Boundary, op=NEW
plate-1.all_nodes, XSYMM
** Name: fix inner layer Type: Symmetry/Antisymmetry/Encastre
*Boundary, op=NEW
Set-10, ENCASTRE
** Name: step1750 Type: Displacement/Rotation
*Boundary, op=NEW
** Name: step2000 Type: Displacement/Rotation
*Boundary, op=NEW
Set-7, 1, 1
Set-7, 2, 2, 0.000423
Set-7, 3, 3
Set-7, 4, 4
Set-7, 5, 5
Set-7, 6, 6
** 
** OUTPUT REQUESTS
** 
*Restart, write, frequency=0
** 
** FIELD OUTPUT: F-Output-1
** 
*Output, field
*Node Output
CF, RF, U
*Element Output, directions=YES
LE, PE, PEEQ, PEMAG, S
*Contact Output
CDISP, CFORCE, CSTRESS
** 
** HISTORY OUTPUT: H-Output-4
** 
*Output, history
*Contact Output
CAREA, CFT1, CFT2, CFT3, CFTM
** 
** HISTORY OUTPUT: H-Output-3
** 
*Contact Output, nset=layer-1."contact surface"
CAREA, CFT1, CFT2, CFT3, CFTM
** 
** HISTORY OUTPUT: H-Output-1
** 
*Contact Output, nset=plate-1.contact_surface
CAREA, CFT1, CFT2, CFT3, CFTM
** 
** HISTORY OUTPUT: H-Output-2
** 
*Node Output, nset=plate-1.one_node
U2, 
*End Step
** ----------------------------------------------------------------
** 
** STEP: step3000
** 
*Step, name=step3000, nlgeom=YES, inc=10
*Static
0.01, 0.1, 1e-06, 0.01
** 
** BOUNDARY CONDITIONS
** 
** Name: fix all nodes Type: Symmetry/Antisymmetry/Encastre
*Boundary, op=NEW
plate-1.all_nodes, XSYMM
** Name: fix inner layer Type: Symmetry/Antisymmetry/Encastre
*Boundary, op=NEW
Set-10, ENCASTRE
** Name: step2000 Type: Displacement/Rotation
*Boundary, op=NEW
** Name: step3000 Type: Displacement/Rotation
*Boundary, op=NEW
Set-8, 1, 1
Set-8, 2, 2, 0.000513
Set-8, 3, 3
Set-8, 4, 4
Set-8, 5, 5
Set-8, 6, 6
** 
** OUTPUT REQUESTS
** 
*Restart, write, frequency=0
** 
** FIELD OUTPUT: F-Output-1
** 
*Output, field
*Node Output
CF, RF, U
*Element Output, directions=YES
LE, PE, PEEQ, PEMAG, S
*Contact Output
CDISP, CFORCE, CSTRESS
** 
** HISTORY OUTPUT: H-Output-4
** 
*Output, history
*Contact Output
CAREA, CFT1, CFT2, CFT3, CFTM
** 
** HISTORY OUTPUT: H-Output-3
** 
*Contact Output, nset=layer-1."contact surface"
CAREA, CFT1, CFT2, CFT3, CFTM
** 
** HISTORY OUTPUT: H-Output-1
** 
*Contact Output, nset=plate-1.contact_surface
CAREA, CFT1, CFT2, CFT3, CFTM
** 
** HISTORY OUTPUT: H-Output-2
** 
*Node Output, nset=plate-1.one_node
U2, 
*End Step
** ----------------------------------------------------------------
** 
** STEP: step4000
** 
*Step, name=step4000, nlgeom=YES, inc=10
*Static
0.01, 0.1, 1e-06, 0.01
** 
** BOUNDARY CONDITIONS
** 
** Name: fix all nodes Type: Symmetry/Antisymmetry/Encastre
*Boundary, op=NEW
plate-1.all_nodes, XSYMM
** Name: fix inner layer Type: Symmetry/Antisymmetry/Encastre
*Boundary, op=NEW
Set-10, ENCASTRE
** Name: step3000 Type: Displacement/Rotation
*Boundary, op=NEW
** Name: step4000 Type: Displacement/Rotation
*Boundary, op=NEW
Set-9, 1, 1
Set-9, 2, 2, 0.000637
Set-9, 3, 3
Set-9, 4, 4
Set-9, 5, 5
Set-9, 6, 6
** 
** OUTPUT REQUESTS
** 
*Restart, write, frequency=0
** 
** FIELD OUTPUT: F-Output-1
** 
*Output, field
*Node Output
CF, RF, U
*Element Output, directions=YES
LE, PE, PEEQ, PEMAG, S
*Contact Output
CDISP, CFORCE, CSTRESS
** 
** HISTORY OUTPUT: H-Output-4
** 
*Output, history
*Contact Output
CAREA, CFT1, CFT2, CFT3, CFTM
** 
** HISTORY OUTPUT: H-Output-3
** 
*Contact Output, nset=layer-1."contact surface"
CAREA, CFT1, CFT2, CFT3, CFTM
** 
** HISTORY OUTPUT: H-Output-1
** 
*Contact Output, nset=plate-1.contact_surface
CAREA, CFT1, CFT2, CFT3, CFTM
** 
** HISTORY OUTPUT: H-Output-2
** 
*Node Output, nset=plate-1.one_node
U2, 
*End Step
