*Heading
** Job name: 10466 Model name: Model-1
** Generated by: Abaqus/CAE 2022
*Preprint, echo=NO, model=NO, history=NO, contact=NO
**
*PARAMETER
C10=
** PARTS
**
*Part, name="layer 1/6"
*Node
      1, 0.0234035887, -0.0664660037
      2,           0., -0.0664660037
      3,           0., -0.0704659969
      4, -0.0234035887, -0.0664660037
      5,           0., -0.0599999987
      6, -0.0299999993, -0.0519615225
      7, -0.0352329984, -0.0610253476
      8, 0.0352329984, -0.0610253476
      9, 0.0299999993, -0.0519615225
     10, 0.0233535822, -0.0664660037
     11,  0.023303574, -0.0664660037
     12, 0.0232535657, -0.0664660037
     13, 0.0232035592, -0.0664660037
     14, 0.0231535509, -0.0664660037
     15, 0.0231035426, -0.0664660037
     16, 0.0230535362, -0.0664660037
     17, 0.0230035279, -0.0664660037
     18, 0.0229535196, -0.0664660037
     19, 0.0229035132, -0.0664660037
     20, 0.0228535049, -0.0664660037
** ... 51462 like lines cut
*Element, type=CPS3
  1,  9992,  9142,  2472
  2, 15426,  6522, 15649
  3, 13584, 12924, 13347
  4, 13563, 13765,  5949
  5, 14390, 13986, 13947
  6, 15386, 14994, 14993
  7, 15060,  7123,  7520
  8, 13510,  5867,  5374
  9,  9839,  2721,  9172
 10,  7994, 17397, 16720
 11, 11755,  3910,  3889
 12, 15068,  5755, 15013
 13, 16065,  8009, 15548
 14, 11264, 10362,  3469
 15, 10585,  9824,  2933
 16,  9742, 10064,  2427
 17,  9675,  9100,  9099
 18, 10769,  3554,  4980
 19, 15272,  6737,  6642
 20, 16274, 16153, 16152
** ... 1702 like lines cut
*Element, type=CPS4R
  550,    10,    11,  1030,  1031
  551,  9095,  9094,  2648,  9657
  552,  1019,  2465,  9098,  1018
  553,  2992,  2551,  9654,  9674
  554,  9103,  2725, 10013,  9104
  555,  9658,  9655,  9096,  2741
  556,  2552,  9650,  9679,  3168
  557,  1005,  1006,  9107,  2688
  558,  9108,  9109,  1002,  1003
  559,  9688,  9110,  2520,  9689
  560,  3486,  3281, 10614,  3208
  561,  2856,  9832,  2557,  2644
  562,  9973,  9635,  9634,  9974
  563,  3061, 11115, 10652,  2771
  564, 11322,  3628, 11853,  4081
  565, 10813,  3835, 11322, 10814
  566,   980,  2489,  9123,   979
  567,  3549, 10949,  3337, 10327
  568,  9619,  2642,  9742,  2427
  569,  9742,  2642,  2800,  3078
** ... 50066 like lines cut
*Nset, nset=Set-1, generate
     1,  51482,      1
*Elset, elset=Set-1, generate
     1,  51808,      1
** Section: elastomer
*Solid Section, elset=Set-1, material=elastomer
,
*End Part
**  
*Part, name=plate
*Node
      1, 0.0399999991, 0.00625000009
      2, 0.0399999991, 0.0162499994
      3,           0., 0.0162499994
      4,           0., 0.00625000009
      5, 0.0799999982, 0.00625000009
      6, 0.0799999982, 0.0162499994
      7, 0.0399999991, 0.00724999979
      8, 0.0399999991, 0.00824999996
      9, 0.0399999991, 0.00925000012
     10, 0.0399999991, 0.0102500003
     11, 0.0399999991, 0.0112500004
     12, 0.0399999991, 0.0122499997
     13, 0.0399999991, 0.0132499998
     14, 0.0399999991,      0.01425
     15, 0.0399999991, 0.0152500002
     16, 0.0390000008, 0.0162499994
     17, 0.0379999988, 0.0162499994
     18, 0.0370000005, 0.0162499994
     19, 0.0359999985, 0.0162499994
     20, 0.0350000001, 0.0162499994
** ... 871 like lines cut
*Element, type=CPS4R
  1,   1,   7, 190, 102
  2,   7,   8, 191, 190
  3,   8,   9, 192, 191
  4,   9,  10, 193, 192
  5,  10,  11, 194, 193
  6,  11,  12, 195, 194
  7,  12,  13, 196, 195
  8,  13,  14, 197, 196
  9,  14,  15, 198, 197
 10,  15,   2,  16, 198
 11, 102, 190, 199, 101
 12, 190, 191, 200, 199
 13, 191, 192, 201, 200
 14, 192, 193, 202, 201
 15, 193, 194, 203, 202
 16, 194, 195, 204, 203
 17, 195, 196, 205, 204
 18, 196, 197, 206, 205
 19, 197, 198, 207, 206
 20, 198,  16,  17, 207
** ... 780 like lines cut
*Nset, nset=Set-1, generate
   1,  891,    1
*Elset, elset=Set-1, generate
   1,  800,    1
*Nset, nset=all_nodes, generate
   1,  891,    1
*Nset, nset=under_node
 1,
*Nset, nset=one_node
 2,
*Elset, elset="_top surrface_S2", internal, generate
  10,  400,   10
*Elset, elset="_top surrface_S4", internal, generate
 401,  791,   10
*Surface, type=ELEMENT, name="top surrface"
"_top surrface_S2", S2
"_top surrface_S4", S4
*Elset, elset="_bottom surface_S4", internal, generate
   1,  391,   10
*Elset, elset="_bottom surface_S2", internal, generate
 410,  800,   10
*Surface, type=ELEMENT, name="bottom surface"
"_bottom surface_S4", S4
"_bottom surface_S2", S2
** Section: steel
*Solid Section, elset=Set-1, material=steel
,
*End Part
**  
**
** ASSEMBLY
**
*Assembly, name=Assembly
**  
*Instance, name=plate-1, part=plate
*End Instance
**  
*Instance, name="layer 1/6-1", part="layer 1/6"
        0.04,     0.086716,           0.
*End Instance
**  
*Node
      1, 0.0399999991, 0.00625000009,           0.
*Node
      2,           0., 0.0162499994,           0.
*Nset, nset=Set-2, instance=plate-1
   1,   2,   3,   4,   5,   6,  16,  17,  18,  19,  20,  21,  22,  23,  24,  25
  26,  27,  28,  29,  30,  31,  32,  33,  34,  35,  36,  37,  38,  39,  40,  41
  42,  43,  44,  45,  46,  47,  48,  49,  50,  51,  52,  53,  54,  64,  65,  66
  67,  68,  69,  70,  71,  72,  73,  74,  75,  76,  77,  78,  79,  80,  81,  82
  83,  84,  85,  86,  87,  88,  89,  90,  91,  92,  93,  94,  95,  96,  97,  98
  99, 100, 101, 102, 103, 104, 105, 106, 107, 108, 109, 110, 111, 112, 113, 114
 115, 116, 117, 118, 119, 120, 121, 122, 123, 124, 125, 126, 127, 128, 129, 130
 131, 132, 133, 134, 135, 136, 137, 138, 139, 140, 141, 151, 152, 153, 154, 155
 156, 157, 158, 159, 160, 161, 162, 163, 164, 165, 166, 167, 168, 169, 170, 171
 172, 173, 174, 175, 176, 177, 178, 179, 180, 181, 182, 183, 184, 185, 186, 187
 188, 189
*Elset, elset=Set-2, instance=plate-1
   1,  10,  11,  20,  21,  30,  31,  40,  41,  50,  51,  60,  61,  70,  71,  80
  81,  90,  91, 100, 101, 110, 111, 120, 121, 130, 131, 140, 141, 150, 151, 160
 161, 170, 171, 180, 181, 190, 191, 200, 201, 210, 211, 220, 221, 230, 231, 240
 241, 250, 251, 260, 261, 270, 271, 280, 281, 290, 291, 300, 301, 310, 311, 320
 321, 330, 331, 340, 341, 350, 351, 360, 361, 370, 371, 380, 381, 390, 391, 400
 401, 410, 411, 420, 421, 430, 431, 440, 441, 450, 451, 460, 461, 470, 471, 480
 481, 490, 491, 500, 501, 510, 511, 520, 521, 530, 531, 540, 541, 550, 551, 560
 561, 570, 571, 580, 581, 590, 591, 600, 601, 610, 611, 620, 621, 630, 631, 640
 641, 650, 651, 660, 661, 670, 671, 680, 681, 690, 691, 700, 701, 710, 711, 720
 721, 730, 731, 740, 741, 750, 751, 760, 761, 770, 771, 780, 781, 790, 791, 800
*Nset, nset=Set-3, instance=plate-1
   2,   3,   6,  16,  17,  18,  19,  20,  21,  22,  23,  24,  25,  26,  27,  28
  29,  30,  31,  32,  33,  34,  35,  36,  37,  38,  39,  40,  41,  42,  43,  44
  45,  46,  47,  48,  49,  50,  51,  52,  53,  54, 151, 152, 153, 154, 155, 156
 157, 158, 159, 160, 161, 162, 163, 164, 165, 166, 167, 168, 169, 170, 171, 172
 173, 174, 175, 176, 177, 178, 179, 180, 181, 182, 183, 184, 185, 186, 187, 188
 189,
*Elset, elset=Set-3, instance=plate-1
  10,  20,  30,  40,  50,  60,  70,  80,  90, 100, 110, 120, 130, 140, 150, 160
 170, 180, 190, 200, 210, 220, 230, 240, 250, 260, 270, 280, 290, 300, 310, 320
 330, 340, 350, 360, 370, 380, 390, 400, 401, 411, 421, 431, 441, 451, 461, 471
 481, 491, 501, 511, 521, 531, 541, 551, 561, 571, 581, 591, 601, 611, 621, 631
 641, 651, 661, 671, 681, 691, 701, 711, 721, 731, 741, 751, 761, 771, 781, 791
*Nset, nset=Set-4, instance=plate-1
   2,   3,   6,  16,  17,  18,  19,  20,  21,  22,  23,  24,  25,  26,  27,  28
  29,  30,  31,  32,  33,  34,  35,  36,  37,  38,  39,  40,  41,  42,  43,  44
  45,  46,  47,  48,  49,  50,  51,  52,  53,  54, 151, 152, 153, 154, 155, 156
 157, 158, 159, 160, 161, 162, 163, 164, 165, 166, 167, 168, 169, 170, 171, 172
 173, 174, 175, 176, 177, 178, 179, 180, 181, 182, 183, 184, 185, 186, 187, 188
 189,
*Elset, elset=Set-4, instance=plate-1
  10,  20,  30,  40,  50,  60,  70,  80,  90, 100, 110, 120, 130, 140, 150, 160
 170, 180, 190, 200, 210, 220, 230, 240, 250, 260, 270, 280, 290, 300, 310, 320
 330, 340, 350, 360, 370, 380, 390, 400, 401, 411, 421, 431, 441, 451, 461, 471
 481, 491, 501, 511, 521, 531, 541, 551, 561, 571, 581, 591, 601, 611, 621, 631
 641, 651, 661, 671, 681, 691, 701, 711, 721, 731, 741, 751, 761, 771, 781, 791
*Nset, nset=Set-5, instance=plate-1
 1,
*Nset, nset=Set-6, instance=plate-1
 1,
*Nset, nset=Set-14, instance=plate-1
   2,   3,   6,  16,  17,  18,  19,  20,  21,  22,  23,  24,  25,  26,  27,  28
  29,  30,  31,  32,  33,  34,  35,  36,  37,  38,  39,  40,  41,  42,  43,  44
  45,  46,  47,  48,  49,  50,  51,  52,  53,  54, 151, 152, 153, 154, 155, 156
 157, 158, 159, 160, 161, 162, 163, 164, 165, 166, 167, 168, 169, 170, 171, 172
 173, 174, 175, 176, 177, 178, 179, 180, 181, 182, 183, 184, 185, 186, 187, 188
 189,
*Elset, elset=Set-14, instance=plate-1
  10,  20,  30,  40,  50,  60,  70,  80,  90, 100, 110, 120, 130, 140, 150, 160
 170, 180, 190, 200, 210, 220, 230, 240, 250, 260, 270, 280, 290, 300, 310, 320
 330, 340, 350, 360, 370, 380, 390, 400, 401, 411, 421, 431, 441, 451, 461, 471
 481, 491, 501, 511, 521, 531, 541, 551, 561, 571, 581, 591, 601, 611, 621, 631
 641, 651, 661, 671, 681, 691, 701, 711, 721, 731, 741, 751, 761, 771, 781, 791
*Nset, nset=Set-15, instance=plate-1
   2,   3,   6,  16,  17,  18,  19,  20,  21,  22,  23,  24,  25,  26,  27,  28
  29,  30,  31,  32,  33,  34,  35,  36,  37,  38,  39,  40,  41,  42,  43,  44
  45,  46,  47,  48,  49,  50,  51,  52,  53,  54, 151, 152, 153, 154, 155, 156
 157, 158, 159, 160, 161, 162, 163, 164, 165, 166, 167, 168, 169, 170, 171, 172
 173, 174, 175, 176, 177, 178, 179, 180, 181, 182, 183, 184, 185, 186, 187, 188
 189,
*Elset, elset=Set-15, instance=plate-1
  10,  20,  30,  40,  50,  60,  70,  80,  90, 100, 110, 120, 130, 140, 150, 160
 170, 180, 190, 200, 210, 220, 230, 240, 250, 260, 270, 280, 290, 300, 310, 320
 330, 340, 350, 360, 370, 380, 390, 400, 401, 411, 421, 431, 441, 451, 461, 471
 481, 491, 501, 511, 521, 531, 541, 551, 561, 571, 581, 591, 601, 611, 621, 631
 641, 651, 661, 671, 681, 691, 701, 711, 721, 731, 741, 751, 761, 771, 781, 791
*Nset, nset=Set-16, instance=plate-1
   2,   3,   6,  16,  17,  18,  19,  20,  21,  22,  23,  24,  25,  26,  27,  28
  29,  30,  31,  32,  33,  34,  35,  36,  37,  38,  39,  40,  41,  42,  43,  44
  45,  46,  47,  48,  49,  50,  51,  52,  53,  54, 151, 152, 153, 154, 155, 156
 157, 158, 159, 160, 161, 162, 163, 164, 165, 166, 167, 168, 169, 170, 171, 172
 173, 174, 175, 176, 177, 178, 179, 180, 181, 182, 183, 184, 185, 186, 187, 188
 189,
*Elset, elset=Set-16, instance=plate-1
  10,  20,  30,  40,  50,  60,  70,  80,  90, 100, 110, 120, 130, 140, 150, 160
 170, 180, 190, 200, 210, 220, 230, 240, 250, 260, 270, 280, 290, 300, 310, 320
 330, 340, 350, 360, 370, 380, 390, 400, 401, 411, 421, 431, 441, 451, 461, 471
 481, 491, 501, 511, 521, 531, 541, 551, 561, 571, 581, 591, 601, 611, 621, 631
 641, 651, 661, 671, 681, 691, 701, 711, 721, 731, 741, 751, 761, 771, 781, 791
*Nset, nset=Set-17, instance=plate-1
   2,   3,   6,  16,  17,  18,  19,  20,  21,  22,  23,  24,  25,  26,  27,  28
  29,  30,  31,  32,  33,  34,  35,  36,  37,  38,  39,  40,  41,  42,  43,  44
  45,  46,  47,  48,  49,  50,  51,  52,  53,  54, 151, 152, 153, 154, 155, 156
 157, 158, 159, 160, 161, 162, 163, 164, 165, 166, 167, 168, 169, 170, 171, 172
 173, 174, 175, 176, 177, 178, 179, 180, 181, 182, 183, 184, 185, 186, 187, 188
 189,
*Elset, elset=Set-17, instance=plate-1
  10,  20,  30,  40,  50,  60,  70,  80,  90, 100, 110, 120, 130, 140, 150, 160
 170, 180, 190, 200, 210, 220, 230, 240, 250, 260, 270, 280, 290, 300, 310, 320
 330, 340, 350, 360, 370, 380, 390, 400, 401, 411, 421, 431, 441, 451, 461, 471
 481, 491, 501, 511, 521, 531, 541, 551, 561, 571, 581, 591, 601, 611, 621, 631
 641, 651, 661, 671, 681, 691, 701, 711, 721, 731, 741, 751, 761, 771, 781, 791
*Nset, nset=Set-18, instance=plate-1
   2,   3,   6,  16,  17,  18,  19,  20,  21,  22,  23,  24,  25,  26,  27,  28
  29,  30,  31,  32,  33,  34,  35,  36,  37,  38,  39,  40,  41,  42,  43,  44
  45,  46,  47,  48,  49,  50,  51,  52,  53,  54, 151, 152, 153, 154, 155, 156
 157, 158, 159, 160, 161, 162, 163, 164, 165, 166, 167, 168, 169, 170, 171, 172
 173, 174, 175, 176, 177, 178, 179, 180, 181, 182, 183, 184, 185, 186, 187, 188
 189,
*Elset, elset=Set-18, instance=plate-1
  10,  20,  30,  40,  50,  60,  70,  80,  90, 100, 110, 120, 130, 140, 150, 160
 170, 180, 190, 200, 210, 220, 230, 240, 250, 260, 270, 280, 290, 300, 310, 320
 330, 340, 350, 360, 370, 380, 390, 400, 401, 411, 421, 431, 441, 451, 461, 471
 481, 491, 501, 511, 521, 531, 541, 551, 561, 571, 581, 591, 601, 611, 621, 631
 641, 651, 661, 671, 681, 691, 701, 711, 721, 731, 741, 751, 761, 771, 781, 791
*Nset, nset=Set-19, instance=plate-1
   2,   3,   6,  16,  17,  18,  19,  20,  21,  22,  23,  24,  25,  26,  27,  28
  29,  30,  31,  32,  33,  34,  35,  36,  37,  38,  39,  40,  41,  42,  43,  44
  45,  46,  47,  48,  49,  50,  51,  52,  53,  54, 151, 152, 153, 154, 155, 156
 157, 158, 159, 160, 161, 162, 163, 164, 165, 166, 167, 168, 169, 170, 171, 172
 173, 174, 175, 176, 177, 178, 179, 180, 181, 182, 183, 184, 185, 186, 187, 188
 189,
*Elset, elset=Set-19, instance=plate-1
  10,  20,  30,  40,  50,  60,  70,  80,  90, 100, 110, 120, 130, 140, 150, 160
 170, 180, 190, 200, 210, 220, 230, 240, 250, 260, 270, 280, 290, 300, 310, 320
 330, 340, 350, 360, 370, 380, 390, 400, 401, 411, 421, 431, 441, 451, 461, 471
 481, 491, 501, 511, 521, 531, 541, 551, 561, 571, 581, 591, 601, 611, 621, 631
 641, 651, 661, 671, 681, 691, 701, 711, 721, 731, 741, 751, 761, 771, 781, 791
*Nset, nset=Set-20, instance=plate-1
   2,   3,   6,  16,  17,  18,  19,  20,  21,  22,  23,  24,  25,  26,  27,  28
  29,  30,  31,  32,  33,  34,  35,  36,  37,  38,  39,  40,  41,  42,  43,  44
  45,  46,  47,  48,  49,  50,  51,  52,  53,  54, 151, 152, 153, 154, 155, 156
 157, 158, 159, 160, 161, 162, 163, 164, 165, 166, 167, 168, 169, 170, 171, 172
 173, 174, 175, 176, 177, 178, 179, 180, 181, 182, 183, 184, 185, 186, 187, 188
 189,
*Elset, elset=Set-20, instance=plate-1
  10,  20,  30,  40,  50,  60,  70,  80,  90, 100, 110, 120, 130, 140, 150, 160
 170, 180, 190, 200, 210, 220, 230, 240, 250, 260, 270, 280, 290, 300, 310, 320
 330, 340, 350, 360, 370, 380, 390, 400, 401, 411, 421, 431, 441, 451, 461, 471
 481, 491, 501, 511, 521, 531, 541, 551, 561, 571, 581, 591, 601, 611, 621, 631
 641, 651, 661, 671, 681, 691, 701, 711, 721, 731, 741, 751, 761, 771, 781, 791
*Nset, nset=Set-21, instance=plate-1
   2,   3,   6,  16,  17,  18,  19,  20,  21,  22,  23,  24,  25,  26,  27,  28
  29,  30,  31,  32,  33,  34,  35,  36,  37,  38,  39,  40,  41,  42,  43,  44
  45,  46,  47,  48,  49,  50,  51,  52,  53,  54, 151, 152, 153, 154, 155, 156
 157, 158, 159, 160, 161, 162, 163, 164, 165, 166, 167, 168, 169, 170, 171, 172
 173, 174, 175, 176, 177, 178, 179, 180, 181, 182, 183, 184, 185, 186, 187, 188
 189,
*Elset, elset=Set-21, instance=plate-1
  10,  20,  30,  40,  50,  60,  70,  80,  90, 100, 110, 120, 130, 140, 150, 160
 170, 180, 190, 200, 210, 220, 230, 240, 250, 260, 270, 280, 290, 300, 310, 320
 330, 340, 350, 360, 370, 380, 390, 400, 401, 411, 421, 431, 441, 451, 461, 471
 481, 491, 501, 511, 521, 531, 541, 551, 561, 571, 581, 591, 601, 611, 621, 631
 641, 651, 661, 671, 681, 691, 701, 711, 721, 731, 741, 751, 761, 771, 781, 791
*Nset, nset=Set-22, instance=plate-1
   2,   3,   6,  16,  17,  18,  19,  20,  21,  22,  23,  24,  25,  26,  27,  28
  29,  30,  31,  32,  33,  34,  35,  36,  37,  38,  39,  40,  41,  42,  43,  44
  45,  46,  47,  48,  49,  50,  51,  52,  53,  54, 151, 152, 153, 154, 155, 156
 157, 158, 159, 160, 161, 162, 163, 164, 165, 166, 167, 168, 169, 170, 171, 172
 173, 174, 175, 176, 177, 178, 179, 180, 181, 182, 183, 184, 185, 186, 187, 188
 189,
*Elset, elset=Set-22, instance=plate-1
  10,  20,  30,  40,  50,  60,  70,  80,  90, 100, 110, 120, 130, 140, 150, 160
 170, 180, 190, 200, 210, 220, 230, 240, 250, 260, 270, 280, 290, 300, 310, 320
 330, 340, 350, 360, 370, 380, 390, 400, 401, 411, 421, 431, 441, 451, 461, 471
 481, 491, 501, 511, 521, 531, 541, 551, 561, 571, 581, 591, 601, 611, 621, 631
 641, 651, 661, 671, 681, 691, 701, 711, 721, 731, 741, 751, 761, 771, 781, 791
*Nset, nset=Set-23, instance=plate-1
   2,   3,   6,  16,  17,  18,  19,  20,  21,  22,  23,  24,  25,  26,  27,  28
  29,  30,  31,  32,  33,  34,  35,  36,  37,  38,  39,  40,  41,  42,  43,  44
  45,  46,  47,  48,  49,  50,  51,  52,  53,  54, 151, 152, 153, 154, 155, 156
 157, 158, 159, 160, 161, 162, 163, 164, 165, 166, 167, 168, 169, 170, 171, 172
 173, 174, 175, 176, 177, 178, 179, 180, 181, 182, 183, 184, 185, 186, 187, 188
 189,
*Elset, elset=Set-23, instance=plate-1
  10,  20,  30,  40,  50,  60,  70,  80,  90, 100, 110, 120, 130, 140, 150, 160
 170, 180, 190, 200, 210, 220, 230, 240, 250, 260, 270, 280, 290, 300, 310, 320
 330, 340, 350, 360, 370, 380, 390, 400, 401, 411, 421, 431, 441, 451, 461, 471
 481, 491, 501, 511, 521, 531, 541, 551, 561, 571, 581, 591, 601, 611, 621, 631
 641, 651, 661, 671, 681, 691, 701, 711, 721, 731, 741, 751, 761, 771, 781, 791
*Nset, nset=Set-24, instance=plate-1
   2,   3,   6,  16,  17,  18,  19,  20,  21,  22,  23,  24,  25,  26,  27,  28
  29,  30,  31,  32,  33,  34,  35,  36,  37,  38,  39,  40,  41,  42,  43,  44
  45,  46,  47,  48,  49,  50,  51,  52,  53,  54, 151, 152, 153, 154, 155, 156
 157, 158, 159, 160, 161, 162, 163, 164, 165, 166, 167, 168, 169, 170, 171, 172
 173, 174, 175, 176, 177, 178, 179, 180, 181, 182, 183, 184, 185, 186, 187, 188
 189,
*Elset, elset=Set-24, instance=plate-1
  10,  20,  30,  40,  50,  60,  70,  80,  90, 100, 110, 120, 130, 140, 150, 160
 170, 180, 190, 200, 210, 220, 230, 240, 250, 260, 270, 280, 290, 300, 310, 320
 330, 340, 350, 360, 370, 380, 390, 400, 401, 411, 421, 431, 441, 451, 461, 471
 481, 491, 501, 511, 521, 531, 541, 551, 561, 571, 581, 591, 601, 611, 621, 631
 641, 651, 661, 671, 681, 691, 701, 711, 721, 731, 741, 751, 761, 771, 781, 791
*Nset, nset=Set-25, instance=plate-1
   2,   3,   6,  16,  17,  18,  19,  20,  21,  22,  23,  24,  25,  26,  27,  28
  29,  30,  31,  32,  33,  34,  35,  36,  37,  38,  39,  40,  41,  42,  43,  44
  45,  46,  47,  48,  49,  50,  51,  52,  53,  54, 151, 152, 153, 154, 155, 156
 157, 158, 159, 160, 161, 162, 163, 164, 165, 166, 167, 168, 169, 170, 171, 172
 173, 174, 175, 176, 177, 178, 179, 180, 181, 182, 183, 184, 185, 186, 187, 188
 189,
*Elset, elset=Set-25, instance=plate-1
  10,  20,  30,  40,  50,  60,  70,  80,  90, 100, 110, 120, 130, 140, 150, 160
 170, 180, 190, 200, 210, 220, 230, 240, 250, 260, 270, 280, 290, 300, 310, 320
 330, 340, 350, 360, 370, 380, 390, 400, 401, 411, 421, 431, 441, 451, 461, 471
 481, 491, 501, 511, 521, 531, 541, 551, 561, 571, 581, 591, 601, 611, 621, 631
 641, 651, 661, 671, 681, 691, 701, 711, 721, 731, 741, 751, 761, 771, 781, 791
*Nset, nset=Set-26, instance=plate-1
   2,   3,   6,  16,  17,  18,  19,  20,  21,  22,  23,  24,  25,  26,  27,  28
  29,  30,  31,  32,  33,  34,  35,  36,  37,  38,  39,  40,  41,  42,  43,  44
  45,  46,  47,  48,  49,  50,  51,  52,  53,  54, 151, 152, 153, 154, 155, 156
 157, 158, 159, 160, 161, 162, 163, 164, 165, 166, 167, 168, 169, 170, 171, 172
 173, 174, 175, 176, 177, 178, 179, 180, 181, 182, 183, 184, 185, 186, 187, 188
 189,
*Elset, elset=Set-26, instance=plate-1
  10,  20,  30,  40,  50,  60,  70,  80,  90, 100, 110, 120, 130, 140, 150, 160
 170, 180, 190, 200, 210, 220, 230, 240, 250, 260, 270, 280, 290, 300, 310, 320
 330, 340, 350, 360, 370, 380, 390, 400, 401, 411, 421, 431, 441, 451, 461, 471
 481, 491, 501, 511, 521, 531, 541, 551, 561, 571, 581, 591, 601, 611, 621, 631
 641, 651, 661, 671, 681, 691, 701, 711, 721, 731, 741, 751, 761, 771, 781, 791
*Nset, nset=Set-27, instance=plate-1
   2,   3,   6,  16,  17,  18,  19,  20,  21,  22,  23,  24,  25,  26,  27,  28
  29,  30,  31,  32,  33,  34,  35,  36,  37,  38,  39,  40,  41,  42,  43,  44
  45,  46,  47,  48,  49,  50,  51,  52,  53,  54, 151, 152, 153, 154, 155, 156
 157, 158, 159, 160, 161, 162, 163, 164, 165, 166, 167, 168, 169, 170, 171, 172
 173, 174, 175, 176, 177, 178, 179, 180, 181, 182, 183, 184, 185, 186, 187, 188
 189,
*Elset, elset=Set-27, instance=plate-1
  10,  20,  30,  40,  50,  60,  70,  80,  90, 100, 110, 120, 130, 140, 150, 160
 170, 180, 190, 200, 210, 220, 230, 240, 250, 260, 270, 280, 290, 300, 310, 320
 330, 340, 350, 360, 370, 380, 390, 400, 401, 411, 421, 431, 441, 451, 461, 471
 481, 491, 501, 511, 521, 531, 541, 551, 561, 571, 581, 591, 601, 611, 621, 631
 641, 651, 661, 671, 681, 691, 701, 711, 721, 731, 741, 751, 761, 771, 781, 791
*Nset, nset=Set-28, instance=plate-1
   2,   3,   6,  16,  17,  18,  19,  20,  21,  22,  23,  24,  25,  26,  27,  28
  29,  30,  31,  32,  33,  34,  35,  36,  37,  38,  39,  40,  41,  42,  43,  44
  45,  46,  47,  48,  49,  50,  51,  52,  53,  54, 151, 152, 153, 154, 155, 156
 157, 158, 159, 160, 161, 162, 163, 164, 165, 166, 167, 168, 169, 170, 171, 172
 173, 174, 175, 176, 177, 178, 179, 180, 181, 182, 183, 184, 185, 186, 187, 188
 189,
*Elset, elset=Set-28, instance=plate-1
  10,  20,  30,  40,  50,  60,  70,  80,  90, 100, 110, 120, 130, 140, 150, 160
 170, 180, 190, 200, 210, 220, 230, 240, 250, 260, 270, 280, 290, 300, 310, 320
 330, 340, 350, 360, 370, 380, 390, 400, 401, 411, 421, 431, 441, 451, 461, 471
 481, 491, 501, 511, 521, 531, 541, 551, 561, 571, 581, 591, 601, 611, 621, 631
 641, 651, 661, 671, 681, 691, 701, 711, 721, 731, 741, 751, 761, 771, 781, 791
*Nset, nset=Set-29, instance=plate-1
   2,   3,   6,  16,  17,  18,  19,  20,  21,  22,  23,  24,  25,  26,  27,  28
  29,  30,  31,  32,  33,  34,  35,  36,  37,  38,  39,  40,  41,  42,  43,  44
  45,  46,  47,  48,  49,  50,  51,  52,  53,  54, 151, 152, 153, 154, 155, 156
 157, 158, 159, 160, 161, 162, 163, 164, 165, 166, 167, 168, 169, 170, 171, 172
 173, 174, 175, 176, 177, 178, 179, 180, 181, 182, 183, 184, 185, 186, 187, 188
 189,
*Elset, elset=Set-29, instance=plate-1
  10,  20,  30,  40,  50,  60,  70,  80,  90, 100, 110, 120, 130, 140, 150, 160
 170, 180, 190, 200, 210, 220, 230, 240, 250, 260, 270, 280, 290, 300, 310, 320
 330, 340, 350, 360, 370, 380, 390, 400, 401, 411, 421, 431, 441, 451, 461, 471
 481, 491, 501, 511, 521, 531, 541, 551, 561, 571, 581, 591, 601, 611, 621, 631
 641, 651, 661, 671, 681, 691, 701, 711, 721, 731, 741, 751, 761, 771, 781, 791
*Nset, nset=Set-30, instance=plate-1
   2,   3,   6,  16,  17,  18,  19,  20,  21,  22,  23,  24,  25,  26,  27,  28
  29,  30,  31,  32,  33,  34,  35,  36,  37,  38,  39,  40,  41,  42,  43,  44
  45,  46,  47,  48,  49,  50,  51,  52,  53,  54, 151, 152, 153, 154, 155, 156
 157, 158, 159, 160, 161, 162, 163, 164, 165, 166, 167, 168, 169, 170, 171, 172
 173, 174, 175, 176, 177, 178, 179, 180, 181, 182, 183, 184, 185, 186, 187, 188
 189,
*Elset, elset=Set-30, instance=plate-1
  10,  20,  30,  40,  50,  60,  70,  80,  90, 100, 110, 120, 130, 140, 150, 160
 170, 180, 190, 200, 210, 220, 230, 240, 250, 260, 270, 280, 290, 300, 310, 320
 330, 340, 350, 360, 370, 380, 390, 400, 401, 411, 421, 431, 441, 451, 461, 471
 481, 491, 501, 511, 521, 531, 541, 551, 561, 571, 581, 591, 601, 611, 621, 631
 641, 651, 661, 671, 681, 691, 701, 711, 721, 731, 741, 751, 761, 771, 781, 791
*Nset, nset=Set-31, instance=plate-1
   2,   3,   6,  16,  17,  18,  19,  20,  21,  22,  23,  24,  25,  26,  27,  28
  29,  30,  31,  32,  33,  34,  35,  36,  37,  38,  39,  40,  41,  42,  43,  44
  45,  46,  47,  48,  49,  50,  51,  52,  53,  54, 151, 152, 153, 154, 155, 156
 157, 158, 159, 160, 161, 162, 163, 164, 165, 166, 167, 168, 169, 170, 171, 172
 173, 174, 175, 176, 177, 178, 179, 180, 181, 182, 183, 184, 185, 186, 187, 188
 189,
*Elset, elset=Set-31, instance=plate-1
  10,  20,  30,  40,  50,  60,  70,  80,  90, 100, 110, 120, 130, 140, 150, 160
 170, 180, 190, 200, 210, 220, 230, 240, 250, 260, 270, 280, 290, 300, 310, 320
 330, 340, 350, 360, 370, 380, 390, 400, 401, 411, 421, 431, 441, 451, 461, 471
 481, 491, 501, 511, 521, 531, 541, 551, 561, 571, 581, 591, 601, 611, 621, 631
 641, 651, 661, 671, 681, 691, 701, 711, 721, 731, 741, 751, 761, 771, 781, 791
*Nset, nset=Set-32, instance=plate-1
   2,   3,   6,  16,  17,  18,  19,  20,  21,  22,  23,  24,  25,  26,  27,  28
  29,  30,  31,  32,  33,  34,  35,  36,  37,  38,  39,  40,  41,  42,  43,  44
  45,  46,  47,  48,  49,  50,  51,  52,  53,  54, 151, 152, 153, 154, 155, 156
 157, 158, 159, 160, 161, 162, 163, 164, 165, 166, 167, 168, 169, 170, 171, 172
 173, 174, 175, 176, 177, 178, 179, 180, 181, 182, 183, 184, 185, 186, 187, 188
 189,
*Elset, elset=Set-32, instance=plate-1
  10,  20,  30,  40,  50,  60,  70,  80,  90, 100, 110, 120, 130, 140, 150, 160
 170, 180, 190, 200, 210, 220, 230, 240, 250, 260, 270, 280, 290, 300, 310, 320
 330, 340, 350, 360, 370, 380, 390, 400, 401, 411, 421, 431, 441, 451, 461, 471
 481, 491, 501, 511, 521, 531, 541, 551, 561, 571, 581, 591, 601, 611, 621, 631
 641, 651, 661, 671, 681, 691, 701, 711, 721, 731, 741, 751, 761, 771, 781, 791
*Nset, nset=Set-35, instance="layer 1/6-1"
    5,    6,    9, 1983, 1984, 1985, 1986, 1987, 1988, 1989, 1990, 1991, 1992, 1993, 1994, 1995
 1996, 1997, 1998, 1999, 2000, 2001, 2002, 2003, 2004, 2005, 2006, 2007, 2008, 2009, 2010, 2011
 2012, 2061, 2062, 2063, 2064, 2065, 2066, 2067, 2068, 2069, 2070, 2071, 2072, 2073, 2074, 2075
 2076, 2077, 2078, 2079, 2080, 2081, 2082, 2083, 2084, 2085, 2086, 2087, 2088, 2089, 2090
*Elset, elset=Set-35, instance="layer 1/6-1"
 34250, 34251, 34252, 34262, 34273, 34279, 34280, 34281, 34319, 34320, 34321, 34325, 34327, 34328, 34334, 34335
 34341, 34438, 34480, 34481, 34483, 34484, 34486, 34487, 34488, 41167, 41171, 41188, 41191, 41192, 41193, 43373
 43374, 43421, 43432, 43433, 43440, 43441, 43443, 43454, 43457, 43463, 43470, 43471, 43474, 43486, 43541, 43544
 43550, 43556, 43557, 43622, 43623, 43624, 43626, 43627, 43628, 43629, 43630, 49993, 50004, 50005
*Nset, nset=m_Set-8, instance=plate-1
 1,
*Nset, nset=m_Set-10
 2,
*Elset, elset=_m_Surf-1_S2, internal, instance=plate-1, generate
  10,  400,   10
*Elset, elset=_m_Surf-1_S4, internal, instance=plate-1, generate
 401,  791,   10
*Surface, type=ELEMENT, name=m_Surf-1
_m_Surf-1_S2, S2
_m_Surf-1_S4, S4
*Elset, elset=_m_Surf-4_S2, internal, instance=plate-1, generate
  10,  400,   10
*Elset, elset=_m_Surf-4_S4, internal, instance=plate-1, generate
 401,  791,   10
*Surface, type=ELEMENT, name=m_Surf-4
_m_Surf-4_S2, S2
_m_Surf-4_S4, S4
*Elset, elset=_m_Surf-10_S2, internal, instance=plate-1, generate
  10,  400,   10
*Elset, elset=_m_Surf-10_S4, internal, instance=plate-1, generate
 401,  791,   10
*Surface, type=ELEMENT, name=m_Surf-10
_m_Surf-10_S2, S2
_m_Surf-10_S4, S4
*Elset, elset=_m_Surf-12_S3, internal, instance=plate-1, generate
 391,  400,    1
*Surface, type=ELEMENT, name=m_Surf-12
_m_Surf-12_S3, S3
*Elset, elset=_s_Surf-3_S2, internal, instance=plate-1, generate
  10,  400,   10
*Elset, elset=_s_Surf-3_S4, internal, instance=plate-1, generate
 401,  791,   10
*Surface, type=ELEMENT, name=s_Surf-3
_s_Surf-3_S2, S2
_s_Surf-3_S4, S4
*Elset, elset=_s_Surf-4_S2, internal, instance=plate-1, generate
 410,  800,   10
*Elset, elset=_s_Surf-4_S4, internal, instance=plate-1, generate
   1,  391,   10
*Surface, type=ELEMENT, name=s_Surf-4
_s_Surf-4_S2, S2
_s_Surf-4_S4, S4
*Elset, elset=_s_Surf-8_S2, internal, instance=plate-1, generate
  10,  400,   10
*Elset, elset=_s_Surf-8_S4, internal, instance=plate-1, generate
 401,  791,   10
*Surface, type=ELEMENT, name=s_Surf-8
_s_Surf-8_S2, S2
_s_Surf-8_S4, S4
*Elset, elset=_s_Surf-10_S3, internal, instance=plate-1
 391, 392, 393, 394, 395, 396, 397, 398, 399, 400, 791, 792, 793, 794, 795, 796
 797, 798, 799, 800
*Surface, type=ELEMENT, name=s_Surf-10
_s_Surf-10_S3, S3
*Elset, elset=_s_Surf-12_S3, internal, instance=plate-1, generate
 791,  800,    1
*Surface, type=ELEMENT, name=s_Surf-12
_s_Surf-12_S3, S3
*Elset, elset=_s_Surf-14_S2, internal, instance=plate-1, generate
  10,  400,   10
*Elset, elset=_s_Surf-14_S4, internal, instance=plate-1, generate
 401,  791,   10
*Surface, type=ELEMENT, name=s_Surf-14
_s_Surf-14_S2, S2
_s_Surf-14_S4, S4
** Constraint: Top-Bottom
*Tie, name=Top-Bottom, adjust=yes
plate-1."top surrface", plate-1."bottom surface"
*Elset, elset="__general contact_gcs0_10_S1", internal, instance="layer 1/6-1"
    59,   557,  1169,  1195,  1222,  1234,  1293,  1301,  1328,  1338,  1353,  1395,  1416,  1420,  1896,  1989
  2181,  2532,  3618,  3638,  3722,  3758,  3858,  3862,  3898,  4094,  4095,  4098,  4102,  4118,  4122,  4143
  4146,  4149,  4152,  4162,  4186,  4192,  4194,  4195,  4196,  4197,  4198,  4201,  4204,  4260,  4261,  4515
  4516,  4523,  4525,  4527,  4543,  4545,  4565,  4589,  4603,  4608,  4635,  4653,  4654,  4655,  4661,  4687
  4688,  4690,  4695,  4697,  4701,  4703,  4758,  4798,  5678,  6036, 11664, 11667, 11668, 11674, 11682, 11686
 11687, 11690, 11692, 11693, 11695, 11760, 11779, 11795, 11805
*Elset, elset="__general contact_gcs0_10_S3", internal, instance="layer 1/6-1"
   550,   558,   635,   645,   660,  1221,  1323,  1336,  1361,  1363,  1368,  1379,  1400,  1406,  1671,  1987
  2096,  2179,  2522,  3019,  3120,  3190,  3411,  3421,  3532,  3572,  3815,  3852,  3897,  3928,  4080,  4100
  4103,  4104,  4129,  4135,  4142,  4158,  4161,  4166,  4174,  4184,  4191,  4200,  4207,  4208,  4510,  4536
  4548,  4569,  4591,  4599,  4604,  4606,  4630,  4632,  4636,  4643,  4645,  4652,  4662,  4677,  4680,  4682
  4696,  4698,  4708,  4790,  4894,  4895,  4900,  5024,  5082,  5221,  5282,  7059, 11642, 11665, 11669, 11715
 11727, 11737, 11769, 11793, 11808
*Elset, elset="__general contact_gcs0_10_S4", internal, instance="layer 1/6-1"
   552,   566,  1153,  1161,  1185,  1201,  1209,  1233,  1248,  1267,  1279,  1280,  1313,  1322,  1331,  1337
  1339,  1351,  1354,  1374,  1397,  2090,  2381,  2408,  2535,  2828,  3113,  3188,  3405,  3410,  3515,  3534
  3536,  3602,  3659,  3663,  3704,  3709,  3735,  3748,  3769,  3809,  3822,  3906,  3907,  3927,  4078,  4079
  4092,  4096,  4099,  4108,  4110,  4115,  4117,  4119,  4120,  4125,  4128,  4133,  4138,  4141,  4147,  4154
  4155,  4157,  4171,  4173,  4178,  4179,  4181,  4203,  4509,  4521,  4533,  4535,  4542,  4551,  4552,  4553
  4555,  4563,  4564,  4566,  4567,  4568,  4571,  4573,  4579,  4582,  4596,  4598,  4602,  4610,  4611,  4619
  4620,  4621,  4622,  4631,  4633,  4651,  4660,  4666,  4683,  4684,  4700,  4707,  4725,  4729,  4731,  4738
  4740,  4805,  4853,  4893,  5033,  5175,  5216,  5380,  5752,  5961,  6237,  6841, 11635, 11640, 11688, 11716
 11723, 11764, 11817, 11827
*Elset, elset="__general contact_gcs0_10_S2", internal, instance="layer 1/6-1"
   580,  1132,  1137,  1155,  1156,  1198,  1229,  1230,  1236,  1246,  1249,  1255,  1259,  1260,  1281,  1287
  1307,  1329,  1330,  1335,  1362,  1378,  1398,  1423,  2407,  2969,  3072,  3418,  3481,  3535,  3619,  3670
  3710,  3776,  3794,  3823,  3843,  3859,  3901,  4091,  4097,  4101,  4109,  4111,  4112,  4121,  4123,  4126
  4127,  4130,  4134,  4136,  4137,  4140,  4148,  4150,  4156,  4159,  4164,  4165,  4167,  4169,  4170,  4177
  4180,  4183,  4187,  4206,  4513,  4519,  4520,  4530,  4531,  4537,  4539,  4544,  4549,  4558,  4561,  4570
  4574,  4575,  4576,  4581,  4585,  4586,  4587,  4590,  4594,  4597,  4601,  4612,  4613,  4615,  4616,  4617
  4618,  4623,  4625,  4637,  4639,  4640,  4648,  4658,  4663,  4665,  4667,  4670,  4673,  4679,  4686,  4689
  4691,  4693,  4704,  4709,  4713,  4755,  4785,  4791,  4792,  4809,  5177,  5204,  5223,  5505,  7010, 11639
 11643, 11697, 11698, 11699, 11701, 11705, 11707, 11709, 11710, 11718, 11719, 11724, 11726, 11728, 11733, 11734
 11741, 11742, 11744, 11745, 11746, 11754, 11758, 11761, 11770, 11772, 11775, 11776, 11780, 11781, 11782, 11786
 11792, 11797, 11806, 11809, 11814, 11815, 11822, 11823, 11831, 11832, 11833
*Surface, type=ELEMENT, name="_general contact_gcs0_10", internal
"__general contact_gcs0_10_S1", S1
"__general contact_gcs0_10_S3", S3
"__general contact_gcs0_10_S4", S4
"__general contact_gcs0_10_S2", S2
*Elset, elset="__general contact_gcs0_12_S2", internal, instance="layer 1/6-1"
 17060, 17643, 17644, 17783, 17786, 17792, 17793, 17919, 18048, 18056, 18057, 18071, 18135, 18137, 18144, 18188
 18190, 18191, 18192, 18197, 18198, 18199, 18201, 18202, 18208, 18215, 18217, 18229, 18230, 18235, 18237, 18411
 18413, 18422, 18940, 19137, 19465, 19621, 19686, 19687, 19696, 19697, 20030, 20149, 20397, 20451, 20452, 20646
 20649, 20654, 20811, 20812, 20815, 20817, 20824, 20826, 20832, 20833, 20834, 20836, 20840, 20846, 20849, 20850
 20852, 20856, 20859, 20865, 20866, 20867, 20868, 20870, 20871, 20874, 20879, 20881, 20883, 20884, 20888, 20889
 20895, 20896, 20898, 20904, 20944, 21242, 21243, 21245, 21246, 21251, 21256, 21257, 21262, 21266, 21268, 21271
 21278, 21280, 21289, 21297, 21308, 21311, 21313, 21315, 21323, 21328, 21344, 21348, 21351, 21355, 21360, 21374
 21377, 21386, 21395, 21398, 21400, 21409, 21413, 21425, 21436, 21437, 21445, 21450, 21452, 21457, 21465, 21508
 21511, 21513, 21514, 21521, 21548, 21621, 21715, 21789, 21799, 21967, 22632, 28736, 28739, 28944, 28946, 28954
 28956, 28957, 28958, 28959, 28963, 28965, 28973, 28978, 28984, 28988, 28992, 28995, 28996, 29005, 29008, 29011
 29019, 29021, 29022, 29033, 29035, 29041, 29042, 29045, 29050, 29057, 29062, 29063, 29064, 29072, 29075, 29077
 29079, 29082, 29084, 29087, 29089, 29091
*Elset, elset="__general contact_gcs0_12_S1", internal, instance="layer 1/6-1"
 17645, 17785, 17864, 17868, 17915, 18044, 18133, 18210, 18211, 18226, 18232, 18245, 18263, 18264, 18287, 19041
 20621, 20647, 20648, 20802, 20804, 20821, 20835, 20860, 20864, 20873, 20876, 20910, 20912, 20914, 20919, 20920
 20921, 20922, 20926, 20945, 21236, 21237, 21241, 21247, 21252, 21261, 21265, 21273, 21279, 21295, 21300, 21309
 21312, 21331, 21334, 21335, 21338, 21346, 21347, 21350, 21352, 21358, 21368, 21372, 21381, 21388, 21393, 21427
 21431, 21459, 21510, 21524, 21553, 21597, 21884, 23163, 23537, 28676, 28704, 28709, 28712, 28729, 28733, 29059
*Elset, elset="__general contact_gcs0_12_S3", internal, instance="layer 1/6-1"
 17788, 17913, 18041, 18045, 18055, 18072, 18220, 18222, 18258, 18266, 18273, 18281, 18423, 19095, 19330, 20169
 20454, 20456, 20458, 20641, 20652, 20814, 20838, 20841, 20844, 20857, 20862, 20869, 20891, 20893, 20900, 20913
 20917, 20918, 20923, 20925, 20927, 21034, 21264, 21272, 21290, 21292, 21304, 21305, 21325, 21327, 21332, 21340
 21353, 21357, 21365, 21373, 21375, 21378, 21389, 21403, 21416, 21430, 21432, 21454, 21460, 21463, 21470, 21522
 22535, 22889, 28705, 28706, 28708, 28711, 28715, 28720, 28731, 28737, 28742, 28949, 28991, 29001, 29009, 29015
 29049, 29081
*Elset, elset="__general contact_gcs0_12_S4", internal, instance="layer 1/6-1"
 17789, 17790, 17914, 17918, 18039, 18042, 18058, 18066, 18139, 18143, 18146, 18147, 18193, 18194, 18200, 18204
 18205, 18218, 18223, 18225, 18227, 18246, 18279, 18369, 18412, 18934, 18939, 19040, 19094, 19695, 19738, 19766
 19937, 20072, 20073, 20389, 20453, 20455, 20488, 20510, 20586, 20587, 20614, 20639, 20653, 20655, 20798, 20799
 20800, 20805, 20810, 20819, 20820, 20823, 20827, 20829, 20830, 20831, 20839, 20845, 20848, 20851, 20853, 20855
 20858, 20861, 20878, 20880, 20882, 20886, 20894, 20902, 20905, 20906, 20908, 20909, 20924, 20943, 21033, 21249
 21250, 21254, 21255, 21259, 21275, 21281, 21282, 21283, 21285, 21286, 21291, 21294, 21296, 21302, 21316, 21324
 21326, 21359, 21364, 21366, 21367, 21380, 21384, 21385, 21391, 21399, 21404, 21405, 21419, 21421, 21422, 21426
 21439, 21509, 21517, 22312, 22583, 22630, 22821, 28714, 28725, 28738, 28943, 28945, 28964, 28974, 28976, 29006
 29007, 29016, 29055, 29061, 29088
*Surface, type=ELEMENT, name="_general contact_gcs0_12", internal
"__general contact_gcs0_12_S2", S2
"__general contact_gcs0_12_S1", S1
"__general contact_gcs0_12_S4", S4
"__general contact_gcs0_12_S3", S3
*Elset, elset="__general contact_gcs0_14_S4", internal, instance="layer 1/6-1"
 34250, 34328, 34484, 41192
*Elset, elset="__general contact_gcs0_14_S3", internal, instance="layer 1/6-1"
 34251, 34252, 34279, 34280, 34281, 34319, 34320, 34325, 34327, 34334, 34341, 34438, 41167
*Elset, elset="__general contact_gcs0_14_S1", internal, instance="layer 1/6-1"
 34262, 34335, 34480, 34481, 34486, 34487, 41193
*Elset, elset="__general contact_gcs0_14_S2", internal, instance="layer 1/6-1"
 34273, 34321, 34483, 34488, 41171, 41188, 41191
*Surface, type=ELEMENT, name="_general contact_gcs0_14", internal
"__general contact_gcs0_14_S4", S4
"__general contact_gcs0_14_S3", S3
"__general contact_gcs0_14_S2", S2
"__general contact_gcs0_14_S1", S1
*Elset, elset="__general contact_gcs0_16_S2", internal, instance="layer 1/6-1"
 34288, 34290, 34354, 34365, 34371, 34382, 34489, 41441
*Elset, elset="__general contact_gcs0_16_S4", internal, instance="layer 1/6-1"
 34351, 34352, 34358, 34364, 34430, 34490, 41440
*Elset, elset="__general contact_gcs0_16_S1", internal, instance="layer 1/6-1"
 34787,
*Surface, type=ELEMENT, name="_general contact_gcs0_16", internal
"__general contact_gcs0_16_S2", S2
"__general contact_gcs0_16_S4", S4
"__general contact_gcs0_16_S1", S1
*Elset, elset="__general contact_gcs0_17_S3", internal, instance="layer 1/6-1"
 43364, 43366, 43381, 43400, 43402, 43413, 49997
*Elset, elset="__general contact_gcs0_17_S2", internal, instance="layer 1/6-1"
 43397, 43616, 43925
*Elset, elset="__general contact_gcs0_17_S1", internal, instance="layer 1/6-1"
 43398, 43412, 50001
*Elset, elset="__general contact_gcs0_17_S4", internal, instance="layer 1/6-1"
 43399, 43617, 43618
*Surface, type=ELEMENT, name="_general contact_gcs0_17", internal
"__general contact_gcs0_17_S3", S3
"__general contact_gcs0_17_S2", S2
"__general contact_gcs0_17_S4", S4
"__general contact_gcs0_17_S1", S1
*Elset, elset="__general contact_gcs0_19_S4", internal, instance="layer 1/6-1"
 43373, 43374, 43432, 43433, 43440, 43441, 43443, 43454, 43541, 43544, 43556, 43557
*Elset, elset="__general contact_gcs0_19_S2", internal, instance="layer 1/6-1"
 43421, 43457, 43463, 43471, 43486, 43550, 43622, 43623, 43624, 43626, 43627, 43628, 43629, 43630, 50004, 50005
*Elset, elset="__general contact_gcs0_19_S3", internal, instance="layer 1/6-1"
 43470, 43474, 49993
*Surface, type=ELEMENT, name="_general contact_gcs0_19", internal
"__general contact_gcs0_19_S4", S4
"__general contact_gcs0_19_S2", S2
"__general contact_gcs0_19_S3", S3
*End Assembly
** 
** MATERIALS
** 
*Material, name=elastomer
*Density
1175.,
*Hyperelastic, neo hooke
<C10>,0.
*Material, name=steel
*Density
7850.,
*Elastic
 2.1e+11, 0.3
** 
** INTERACTION PROPERTIES
** 
*Surface Interaction, name=frict
1.,
*Friction, slip tolerance=0.005
 1.045,
** 
** BOUNDARY CONDITIONS
** 
** Name: fix_all_nodes Type: Symmetry/Antisymmetry/Encastre
*Boundary
plate-1.all_nodes, XSYMM
** Name: fix_all_sides Type: Symmetry/Antisymmetry/Encastre
*Boundary
Set-2, XSYMM
** Name: fix_inner_layer Type: Symmetry/Antisymmetry/Encastre
*Boundary
Set-35, ENCASTRE
** 
** INTERACTIONS
** 
** Interaction: general contact
*Contact
*Contact Inclusions, ALL EXTERIOR
*Contact Property Assignment
 ,  , frict
*Surface Property Assignment, property=GEOMETRIC CORRECTION
"_general contact_gcs0_10", Circumferential, 0.04, 0.086716
"_general contact_gcs0_12", Circumferential, 0.04, 0.086716
"_general contact_gcs0_14", Circumferential, 0.04, 0.086716
"_general contact_gcs0_16", Circumferential, 0.04, 0.086716
"_general contact_gcs0_17", Circumferential, 0.04, 0.086716
"_general contact_gcs0_19", Circumferential, 0.04, 0.086716
** ----------------------------------------------------------------
** 
** STEP: press
** 
*Step, name=press, nlgeom=YES
*Static
0.01, 1., 1e-05, 0.01
** 
** BOUNDARY CONDITIONS
** 
** Name: press Type: Displacement/Rotation
*Boundary
Set-32, 1, 1
Set-32, 2, 2, 0.003
Set-32, 6, 6
** 
** OUTPUT REQUESTS
** 
*Restart, write, frequency=0
** 
** FIELD OUTPUT: F-Output-1
** 
*Output, field, variable=PRESELECT
** 
** HISTORY OUTPUT: H-Output-3
** 
*Output, history
*Contact Output
CAREA, CFT2
** 
** HISTORY OUTPUT: H-Output-1
** 
*Node Output, nset=plate-1.one_node
U2, 
** 
** HISTORY OUTPUT: H-Output-2
** 
*Node Output, nset=plate-1.under_node
CF2, RF2, U2
*End Step
