*Heading
** Job name: 1044 Model name: Model-1
** Generated by: Abaqus/CAE 2022
*Preprint, echo=NO, model=NO, history=NO, contact=NO
**
*PARAMETER
C10=
** PARTS
**
*Part, name="layer 1/6"
*Node
      1, 0.0233991444, -0.0664400011
      2,           0., -0.0664400011
      3,           0., -0.0704400018
      4, -0.0233991444, -0.0664400011
      5,           0., -0.0599999987
      6, -0.0299999993, -0.0519615225
      7, -0.0352200009, -0.0610028282
      8, 0.0352200009, -0.0610028282
      9, 0.0299999993, -0.0519615225
     10, 0.0233491473, -0.0664400011
     11, 0.0232991483, -0.0664400011
     12, 0.0232491512, -0.0664400011
     13, 0.0231991522, -0.0664400011
     14, 0.0231491551, -0.0664400011
     15, 0.0230991561, -0.0664400011
     16,  0.023049159, -0.0664400011
     17,   0.02299916, -0.0664400011
     18,  0.022949161, -0.0664400011
     19, 0.0228991639, -0.0664400011
     20, 0.0228491649, -0.0664400011
** ... 51763 like lines cut
*Element, type=CPS3
  1,  2132,  3583,  3875
  2, 13125,  4416,  4519
  3, 11413,  3663,  3805
  4, 12177, 12007, 12148
  5,  9651,  2885,  2737
  6, 17484,  5443,  5375
  7, 11068,  3562, 10983
  8,  4931,  4621,  7078
  9, 11471, 12054, 11454
 10, 12818,  2144,  7529
 11,  9709,  9453,  2283
 12, 10377, 10853,  3166
 13, 10480,  3218,  3504
 14,  6681, 17414,  5301
 15, 10662,  3064,  2790
 16, 18431, 18271, 18330
 17, 10989,  6247,  6256
 18, 12413,  4111,  3845
 19, 12928,  4272,  4112
 20, 10715, 10798,  3417
** ... 1772 like lines cut
*Element, type=CPS4R
  594,    10,    11,  1030,  1031
  595,  1023,  2393,  9446,  1022
  596,  1018,  1019,  2283,  9453
  597,  2488,  9210,  2839,  9709
  598,    29,  2506,  9213,    28
  599,  2506,  9214,  9779,  2697
  600,  9206,    19,    20,  9207
  601,  9215,  2505,  3001,  2489
  602,  1006,  1007,  9463,  2539
  603,  9464,  1005,  1006,  2539
  604,  1003,  9466,  9467,  1002
  605,  2362,  9666,  9667,  9469
  606,  2809,  3054,  3120,  2773
  607,  6809,  9787,  2690, 10404
  608,  2391,  9817,  2379,  9225
  609,  9230,    54,    55,  9231
  610, 10723, 10724,  3220, 11228
  611,  3458,  3926, 12149,  3643
  612, 10979,  3302, 11364,  4510
  613,  9242,  9921,  9920,  9241
** ... 50332 like lines cut
*Nset, nset=Set-1, generate
     1,  51783,      1
*Elset, elset=Set-1, generate
     1,  52144,      1
** Section: elastomer
*Solid Section, elset=Set-1, material=elastomer
,
*End Part
**  
*Part, name=plate
*Node
      1, 0.0399999991, 0.00625000009
      2, 0.0399999991, 0.0162499994
      3,           0., 0.0162499994
      4,           0., 0.00625000009
      5, 0.0799999982, 0.00625000009
      6, 0.0799999982, 0.0162499994
      7, 0.0399999991, 0.00724999979
      8, 0.0399999991, 0.00824999996
      9, 0.0399999991, 0.00925000012
     10, 0.0399999991, 0.0102500003
     11, 0.0399999991, 0.0112500004
     12, 0.0399999991, 0.0122499997
     13, 0.0399999991, 0.0132499998
     14, 0.0399999991,      0.01425
     15, 0.0399999991, 0.0152500002
     16, 0.0390000008, 0.0162499994
     17, 0.0379999988, 0.0162499994
     18, 0.0370000005, 0.0162499994
     19, 0.0359999985, 0.0162499994
     20, 0.0350000001, 0.0162499994
** ... 871 like lines cut
*Element, type=CPS4R
  1,   1,   7, 190, 102
  2,   7,   8, 191, 190
  3,   8,   9, 192, 191
  4,   9,  10, 193, 192
  5,  10,  11, 194, 193
  6,  11,  12, 195, 194
  7,  12,  13, 196, 195
  8,  13,  14, 197, 196
  9,  14,  15, 198, 197
 10,  15,   2,  16, 198
 11, 102, 190, 199, 101
 12, 190, 191, 200, 199
 13, 191, 192, 201, 200
 14, 192, 193, 202, 201
 15, 193, 194, 203, 202
 16, 194, 195, 204, 203
 17, 195, 196, 205, 204
 18, 196, 197, 206, 205
 19, 197, 198, 207, 206
 20, 198,  16,  17, 207
** ... 780 like lines cut
*Nset, nset=Set-1, generate
   1,  891,    1
*Elset, elset=Set-1, generate
   1,  800,    1
*Nset, nset=all_nodes, generate
   1,  891,    1
*Nset, nset=under_node
 1,
*Nset, nset=one_node
 2,
*Elset, elset="_top surrface_S2", internal, generate
  10,  400,   10
*Elset, elset="_top surrface_S4", internal, generate
 401,  791,   10
*Surface, type=ELEMENT, name="top surrface"
"_top surrface_S2", S2
"_top surrface_S4", S4
*Elset, elset="_bottom surface_S4", internal, generate
   1,  391,   10
*Elset, elset="_bottom surface_S2", internal, generate
 410,  800,   10
*Surface, type=ELEMENT, name="bottom surface"
"_bottom surface_S4", S4
"_bottom surface_S2", S2
** Section: steel
*Solid Section, elset=Set-1, material=steel
,
*End Part
**  
**
** ASSEMBLY
**
*Assembly, name=Assembly
**  
*Instance, name=plate-1, part=plate
*End Instance
**  
*Instance, name="layer 1/6-1", part="layer 1/6"
        0.04,      0.08669,           0.
*End Instance
**  
*Node
      1, 0.0399999991, 0.00625000009,           0.
*Node
      2,           0., 0.0162499994,           0.
*Nset, nset=Set-2, instance=plate-1
   1,   2,   3,   4,   5,   6,  16,  17,  18,  19,  20,  21,  22,  23,  24,  25
  26,  27,  28,  29,  30,  31,  32,  33,  34,  35,  36,  37,  38,  39,  40,  41
  42,  43,  44,  45,  46,  47,  48,  49,  50,  51,  52,  53,  54,  64,  65,  66
  67,  68,  69,  70,  71,  72,  73,  74,  75,  76,  77,  78,  79,  80,  81,  82
  83,  84,  85,  86,  87,  88,  89,  90,  91,  92,  93,  94,  95,  96,  97,  98
  99, 100, 101, 102, 103, 104, 105, 106, 107, 108, 109, 110, 111, 112, 113, 114
 115, 116, 117, 118, 119, 120, 121, 122, 123, 124, 125, 126, 127, 128, 129, 130
 131, 132, 133, 134, 135, 136, 137, 138, 139, 140, 141, 151, 152, 153, 154, 155
 156, 157, 158, 159, 160, 161, 162, 163, 164, 165, 166, 167, 168, 169, 170, 171
 172, 173, 174, 175, 176, 177, 178, 179, 180, 181, 182, 183, 184, 185, 186, 187
 188, 189
*Elset, elset=Set-2, instance=plate-1
   1,  10,  11,  20,  21,  30,  31,  40,  41,  50,  51,  60,  61,  70,  71,  80
  81,  90,  91, 100, 101, 110, 111, 120, 121, 130, 131, 140, 141, 150, 151, 160
 161, 170, 171, 180, 181, 190, 191, 200, 201, 210, 211, 220, 221, 230, 231, 240
 241, 250, 251, 260, 261, 270, 271, 280, 281, 290, 291, 300, 301, 310, 311, 320
 321, 330, 331, 340, 341, 350, 351, 360, 361, 370, 371, 380, 381, 390, 391, 400
 401, 410, 411, 420, 421, 430, 431, 440, 441, 450, 451, 460, 461, 470, 471, 480
 481, 490, 491, 500, 501, 510, 511, 520, 521, 530, 531, 540, 541, 550, 551, 560
 561, 570, 571, 580, 581, 590, 591, 600, 601, 610, 611, 620, 621, 630, 631, 640
 641, 650, 651, 660, 661, 670, 671, 680, 681, 690, 691, 700, 701, 710, 711, 720
 721, 730, 731, 740, 741, 750, 751, 760, 761, 770, 771, 780, 781, 790, 791, 800
*Nset, nset=Set-3, instance=plate-1
   2,   3,   6,  16,  17,  18,  19,  20,  21,  22,  23,  24,  25,  26,  27,  28
  29,  30,  31,  32,  33,  34,  35,  36,  37,  38,  39,  40,  41,  42,  43,  44
  45,  46,  47,  48,  49,  50,  51,  52,  53,  54, 151, 152, 153, 154, 155, 156
 157, 158, 159, 160, 161, 162, 163, 164, 165, 166, 167, 168, 169, 170, 171, 172
 173, 174, 175, 176, 177, 178, 179, 180, 181, 182, 183, 184, 185, 186, 187, 188
 189,
*Elset, elset=Set-3, instance=plate-1
  10,  20,  30,  40,  50,  60,  70,  80,  90, 100, 110, 120, 130, 140, 150, 160
 170, 180, 190, 200, 210, 220, 230, 240, 250, 260, 270, 280, 290, 300, 310, 320
 330, 340, 350, 360, 370, 380, 390, 400, 401, 411, 421, 431, 441, 451, 461, 471
 481, 491, 501, 511, 521, 531, 541, 551, 561, 571, 581, 591, 601, 611, 621, 631
 641, 651, 661, 671, 681, 691, 701, 711, 721, 731, 741, 751, 761, 771, 781, 791
*Nset, nset=Set-4, instance=plate-1
   2,   3,   6,  16,  17,  18,  19,  20,  21,  22,  23,  24,  25,  26,  27,  28
  29,  30,  31,  32,  33,  34,  35,  36,  37,  38,  39,  40,  41,  42,  43,  44
  45,  46,  47,  48,  49,  50,  51,  52,  53,  54, 151, 152, 153, 154, 155, 156
 157, 158, 159, 160, 161, 162, 163, 164, 165, 166, 167, 168, 169, 170, 171, 172
 173, 174, 175, 176, 177, 178, 179, 180, 181, 182, 183, 184, 185, 186, 187, 188
 189,
*Elset, elset=Set-4, instance=plate-1
  10,  20,  30,  40,  50,  60,  70,  80,  90, 100, 110, 120, 130, 140, 150, 160
 170, 180, 190, 200, 210, 220, 230, 240, 250, 260, 270, 280, 290, 300, 310, 320
 330, 340, 350, 360, 370, 380, 390, 400, 401, 411, 421, 431, 441, 451, 461, 471
 481, 491, 501, 511, 521, 531, 541, 551, 561, 571, 581, 591, 601, 611, 621, 631
 641, 651, 661, 671, 681, 691, 701, 711, 721, 731, 741, 751, 761, 771, 781, 791
*Nset, nset=Set-5, instance=plate-1
 1,
*Nset, nset=Set-6, instance=plate-1
 1,
*Nset, nset=Set-14, instance=plate-1
   2,   3,   6,  16,  17,  18,  19,  20,  21,  22,  23,  24,  25,  26,  27,  28
  29,  30,  31,  32,  33,  34,  35,  36,  37,  38,  39,  40,  41,  42,  43,  44
  45,  46,  47,  48,  49,  50,  51,  52,  53,  54, 151, 152, 153, 154, 155, 156
 157, 158, 159, 160, 161, 162, 163, 164, 165, 166, 167, 168, 169, 170, 171, 172
 173, 174, 175, 176, 177, 178, 179, 180, 181, 182, 183, 184, 185, 186, 187, 188
 189,
*Elset, elset=Set-14, instance=plate-1
  10,  20,  30,  40,  50,  60,  70,  80,  90, 100, 110, 120, 130, 140, 150, 160
 170, 180, 190, 200, 210, 220, 230, 240, 250, 260, 270, 280, 290, 300, 310, 320
 330, 340, 350, 360, 370, 380, 390, 400, 401, 411, 421, 431, 441, 451, 461, 471
 481, 491, 501, 511, 521, 531, 541, 551, 561, 571, 581, 591, 601, 611, 621, 631
 641, 651, 661, 671, 681, 691, 701, 711, 721, 731, 741, 751, 761, 771, 781, 791
*Nset, nset=Set-15, instance=plate-1
   2,   3,   6,  16,  17,  18,  19,  20,  21,  22,  23,  24,  25,  26,  27,  28
  29,  30,  31,  32,  33,  34,  35,  36,  37,  38,  39,  40,  41,  42,  43,  44
  45,  46,  47,  48,  49,  50,  51,  52,  53,  54, 151, 152, 153, 154, 155, 156
 157, 158, 159, 160, 161, 162, 163, 164, 165, 166, 167, 168, 169, 170, 171, 172
 173, 174, 175, 176, 177, 178, 179, 180, 181, 182, 183, 184, 185, 186, 187, 188
 189,
*Elset, elset=Set-15, instance=plate-1
  10,  20,  30,  40,  50,  60,  70,  80,  90, 100, 110, 120, 130, 140, 150, 160
 170, 180, 190, 200, 210, 220, 230, 240, 250, 260, 270, 280, 290, 300, 310, 320
 330, 340, 350, 360, 370, 380, 390, 400, 401, 411, 421, 431, 441, 451, 461, 471
 481, 491, 501, 511, 521, 531, 541, 551, 561, 571, 581, 591, 601, 611, 621, 631
 641, 651, 661, 671, 681, 691, 701, 711, 721, 731, 741, 751, 761, 771, 781, 791
*Nset, nset=Set-16, instance=plate-1
   2,   3,   6,  16,  17,  18,  19,  20,  21,  22,  23,  24,  25,  26,  27,  28
  29,  30,  31,  32,  33,  34,  35,  36,  37,  38,  39,  40,  41,  42,  43,  44
  45,  46,  47,  48,  49,  50,  51,  52,  53,  54, 151, 152, 153, 154, 155, 156
 157, 158, 159, 160, 161, 162, 163, 164, 165, 166, 167, 168, 169, 170, 171, 172
 173, 174, 175, 176, 177, 178, 179, 180, 181, 182, 183, 184, 185, 186, 187, 188
 189,
*Elset, elset=Set-16, instance=plate-1
  10,  20,  30,  40,  50,  60,  70,  80,  90, 100, 110, 120, 130, 140, 150, 160
 170, 180, 190, 200, 210, 220, 230, 240, 250, 260, 270, 280, 290, 300, 310, 320
 330, 340, 350, 360, 370, 380, 390, 400, 401, 411, 421, 431, 441, 451, 461, 471
 481, 491, 501, 511, 521, 531, 541, 551, 561, 571, 581, 591, 601, 611, 621, 631
 641, 651, 661, 671, 681, 691, 701, 711, 721, 731, 741, 751, 761, 771, 781, 791
*Nset, nset=Set-17, instance=plate-1
   2,   3,   6,  16,  17,  18,  19,  20,  21,  22,  23,  24,  25,  26,  27,  28
  29,  30,  31,  32,  33,  34,  35,  36,  37,  38,  39,  40,  41,  42,  43,  44
  45,  46,  47,  48,  49,  50,  51,  52,  53,  54, 151, 152, 153, 154, 155, 156
 157, 158, 159, 160, 161, 162, 163, 164, 165, 166, 167, 168, 169, 170, 171, 172
 173, 174, 175, 176, 177, 178, 179, 180, 181, 182, 183, 184, 185, 186, 187, 188
 189,
*Elset, elset=Set-17, instance=plate-1
  10,  20,  30,  40,  50,  60,  70,  80,  90, 100, 110, 120, 130, 140, 150, 160
 170, 180, 190, 200, 210, 220, 230, 240, 250, 260, 270, 280, 290, 300, 310, 320
 330, 340, 350, 360, 370, 380, 390, 400, 401, 411, 421, 431, 441, 451, 461, 471
 481, 491, 501, 511, 521, 531, 541, 551, 561, 571, 581, 591, 601, 611, 621, 631
 641, 651, 661, 671, 681, 691, 701, 711, 721, 731, 741, 751, 761, 771, 781, 791
*Nset, nset=Set-18, instance=plate-1
   2,   3,   6,  16,  17,  18,  19,  20,  21,  22,  23,  24,  25,  26,  27,  28
  29,  30,  31,  32,  33,  34,  35,  36,  37,  38,  39,  40,  41,  42,  43,  44
  45,  46,  47,  48,  49,  50,  51,  52,  53,  54, 151, 152, 153, 154, 155, 156
 157, 158, 159, 160, 161, 162, 163, 164, 165, 166, 167, 168, 169, 170, 171, 172
 173, 174, 175, 176, 177, 178, 179, 180, 181, 182, 183, 184, 185, 186, 187, 188
 189,
*Elset, elset=Set-18, instance=plate-1
  10,  20,  30,  40,  50,  60,  70,  80,  90, 100, 110, 120, 130, 140, 150, 160
 170, 180, 190, 200, 210, 220, 230, 240, 250, 260, 270, 280, 290, 300, 310, 320
 330, 340, 350, 360, 370, 380, 390, 400, 401, 411, 421, 431, 441, 451, 461, 471
 481, 491, 501, 511, 521, 531, 541, 551, 561, 571, 581, 591, 601, 611, 621, 631
 641, 651, 661, 671, 681, 691, 701, 711, 721, 731, 741, 751, 761, 771, 781, 791
*Nset, nset=Set-19, instance=plate-1
   2,   3,   6,  16,  17,  18,  19,  20,  21,  22,  23,  24,  25,  26,  27,  28
  29,  30,  31,  32,  33,  34,  35,  36,  37,  38,  39,  40,  41,  42,  43,  44
  45,  46,  47,  48,  49,  50,  51,  52,  53,  54, 151, 152, 153, 154, 155, 156
 157, 158, 159, 160, 161, 162, 163, 164, 165, 166, 167, 168, 169, 170, 171, 172
 173, 174, 175, 176, 177, 178, 179, 180, 181, 182, 183, 184, 185, 186, 187, 188
 189,
*Elset, elset=Set-19, instance=plate-1
  10,  20,  30,  40,  50,  60,  70,  80,  90, 100, 110, 120, 130, 140, 150, 160
 170, 180, 190, 200, 210, 220, 230, 240, 250, 260, 270, 280, 290, 300, 310, 320
 330, 340, 350, 360, 370, 380, 390, 400, 401, 411, 421, 431, 441, 451, 461, 471
 481, 491, 501, 511, 521, 531, 541, 551, 561, 571, 581, 591, 601, 611, 621, 631
 641, 651, 661, 671, 681, 691, 701, 711, 721, 731, 741, 751, 761, 771, 781, 791
*Nset, nset=Set-20, instance=plate-1
   2,   3,   6,  16,  17,  18,  19,  20,  21,  22,  23,  24,  25,  26,  27,  28
  29,  30,  31,  32,  33,  34,  35,  36,  37,  38,  39,  40,  41,  42,  43,  44
  45,  46,  47,  48,  49,  50,  51,  52,  53,  54, 151, 152, 153, 154, 155, 156
 157, 158, 159, 160, 161, 162, 163, 164, 165, 166, 167, 168, 169, 170, 171, 172
 173, 174, 175, 176, 177, 178, 179, 180, 181, 182, 183, 184, 185, 186, 187, 188
 189,
*Elset, elset=Set-20, instance=plate-1
  10,  20,  30,  40,  50,  60,  70,  80,  90, 100, 110, 120, 130, 140, 150, 160
 170, 180, 190, 200, 210, 220, 230, 240, 250, 260, 270, 280, 290, 300, 310, 320
 330, 340, 350, 360, 370, 380, 390, 400, 401, 411, 421, 431, 441, 451, 461, 471
 481, 491, 501, 511, 521, 531, 541, 551, 561, 571, 581, 591, 601, 611, 621, 631
 641, 651, 661, 671, 681, 691, 701, 711, 721, 731, 741, 751, 761, 771, 781, 791
*Nset, nset=Set-21, instance=plate-1
   2,   3,   6,  16,  17,  18,  19,  20,  21,  22,  23,  24,  25,  26,  27,  28
  29,  30,  31,  32,  33,  34,  35,  36,  37,  38,  39,  40,  41,  42,  43,  44
  45,  46,  47,  48,  49,  50,  51,  52,  53,  54, 151, 152, 153, 154, 155, 156
 157, 158, 159, 160, 161, 162, 163, 164, 165, 166, 167, 168, 169, 170, 171, 172
 173, 174, 175, 176, 177, 178, 179, 180, 181, 182, 183, 184, 185, 186, 187, 188
 189,
*Elset, elset=Set-21, instance=plate-1
  10,  20,  30,  40,  50,  60,  70,  80,  90, 100, 110, 120, 130, 140, 150, 160
 170, 180, 190, 200, 210, 220, 230, 240, 250, 260, 270, 280, 290, 300, 310, 320
 330, 340, 350, 360, 370, 380, 390, 400, 401, 411, 421, 431, 441, 451, 461, 471
 481, 491, 501, 511, 521, 531, 541, 551, 561, 571, 581, 591, 601, 611, 621, 631
 641, 651, 661, 671, 681, 691, 701, 711, 721, 731, 741, 751, 761, 771, 781, 791
*Nset, nset=Set-22, instance=plate-1
   2,   3,   6,  16,  17,  18,  19,  20,  21,  22,  23,  24,  25,  26,  27,  28
  29,  30,  31,  32,  33,  34,  35,  36,  37,  38,  39,  40,  41,  42,  43,  44
  45,  46,  47,  48,  49,  50,  51,  52,  53,  54, 151, 152, 153, 154, 155, 156
 157, 158, 159, 160, 161, 162, 163, 164, 165, 166, 167, 168, 169, 170, 171, 172
 173, 174, 175, 176, 177, 178, 179, 180, 181, 182, 183, 184, 185, 186, 187, 188
 189,
*Elset, elset=Set-22, instance=plate-1
  10,  20,  30,  40,  50,  60,  70,  80,  90, 100, 110, 120, 130, 140, 150, 160
 170, 180, 190, 200, 210, 220, 230, 240, 250, 260, 270, 280, 290, 300, 310, 320
 330, 340, 350, 360, 370, 380, 390, 400, 401, 411, 421, 431, 441, 451, 461, 471
 481, 491, 501, 511, 521, 531, 541, 551, 561, 571, 581, 591, 601, 611, 621, 631
 641, 651, 661, 671, 681, 691, 701, 711, 721, 731, 741, 751, 761, 771, 781, 791
*Nset, nset=Set-23, instance=plate-1
   2,   3,   6,  16,  17,  18,  19,  20,  21,  22,  23,  24,  25,  26,  27,  28
  29,  30,  31,  32,  33,  34,  35,  36,  37,  38,  39,  40,  41,  42,  43,  44
  45,  46,  47,  48,  49,  50,  51,  52,  53,  54, 151, 152, 153, 154, 155, 156
 157, 158, 159, 160, 161, 162, 163, 164, 165, 166, 167, 168, 169, 170, 171, 172
 173, 174, 175, 176, 177, 178, 179, 180, 181, 182, 183, 184, 185, 186, 187, 188
 189,
*Elset, elset=Set-23, instance=plate-1
  10,  20,  30,  40,  50,  60,  70,  80,  90, 100, 110, 120, 130, 140, 150, 160
 170, 180, 190, 200, 210, 220, 230, 240, 250, 260, 270, 280, 290, 300, 310, 320
 330, 340, 350, 360, 370, 380, 390, 400, 401, 411, 421, 431, 441, 451, 461, 471
 481, 491, 501, 511, 521, 531, 541, 551, 561, 571, 581, 591, 601, 611, 621, 631
 641, 651, 661, 671, 681, 691, 701, 711, 721, 731, 741, 751, 761, 771, 781, 791
*Nset, nset=Set-24, instance=plate-1
   2,   3,   6,  16,  17,  18,  19,  20,  21,  22,  23,  24,  25,  26,  27,  28
  29,  30,  31,  32,  33,  34,  35,  36,  37,  38,  39,  40,  41,  42,  43,  44
  45,  46,  47,  48,  49,  50,  51,  52,  53,  54, 151, 152, 153, 154, 155, 156
 157, 158, 159, 160, 161, 162, 163, 164, 165, 166, 167, 168, 169, 170, 171, 172
 173, 174, 175, 176, 177, 178, 179, 180, 181, 182, 183, 184, 185, 186, 187, 188
 189,
*Elset, elset=Set-24, instance=plate-1
  10,  20,  30,  40,  50,  60,  70,  80,  90, 100, 110, 120, 130, 140, 150, 160
 170, 180, 190, 200, 210, 220, 230, 240, 250, 260, 270, 280, 290, 300, 310, 320
 330, 340, 350, 360, 370, 380, 390, 400, 401, 411, 421, 431, 441, 451, 461, 471
 481, 491, 501, 511, 521, 531, 541, 551, 561, 571, 581, 591, 601, 611, 621, 631
 641, 651, 661, 671, 681, 691, 701, 711, 721, 731, 741, 751, 761, 771, 781, 791
*Nset, nset=Set-25, instance=plate-1
   2,   3,   6,  16,  17,  18,  19,  20,  21,  22,  23,  24,  25,  26,  27,  28
  29,  30,  31,  32,  33,  34,  35,  36,  37,  38,  39,  40,  41,  42,  43,  44
  45,  46,  47,  48,  49,  50,  51,  52,  53,  54, 151, 152, 153, 154, 155, 156
 157, 158, 159, 160, 161, 162, 163, 164, 165, 166, 167, 168, 169, 170, 171, 172
 173, 174, 175, 176, 177, 178, 179, 180, 181, 182, 183, 184, 185, 186, 187, 188
 189,
*Elset, elset=Set-25, instance=plate-1
  10,  20,  30,  40,  50,  60,  70,  80,  90, 100, 110, 120, 130, 140, 150, 160
 170, 180, 190, 200, 210, 220, 230, 240, 250, 260, 270, 280, 290, 300, 310, 320
 330, 340, 350, 360, 370, 380, 390, 400, 401, 411, 421, 431, 441, 451, 461, 471
 481, 491, 501, 511, 521, 531, 541, 551, 561, 571, 581, 591, 601, 611, 621, 631
 641, 651, 661, 671, 681, 691, 701, 711, 721, 731, 741, 751, 761, 771, 781, 791
*Nset, nset=Set-26, instance=plate-1
   2,   3,   6,  16,  17,  18,  19,  20,  21,  22,  23,  24,  25,  26,  27,  28
  29,  30,  31,  32,  33,  34,  35,  36,  37,  38,  39,  40,  41,  42,  43,  44
  45,  46,  47,  48,  49,  50,  51,  52,  53,  54, 151, 152, 153, 154, 155, 156
 157, 158, 159, 160, 161, 162, 163, 164, 165, 166, 167, 168, 169, 170, 171, 172
 173, 174, 175, 176, 177, 178, 179, 180, 181, 182, 183, 184, 185, 186, 187, 188
 189,
*Elset, elset=Set-26, instance=plate-1
  10,  20,  30,  40,  50,  60,  70,  80,  90, 100, 110, 120, 130, 140, 150, 160
 170, 180, 190, 200, 210, 220, 230, 240, 250, 260, 270, 280, 290, 300, 310, 320
 330, 340, 350, 360, 370, 380, 390, 400, 401, 411, 421, 431, 441, 451, 461, 471
 481, 491, 501, 511, 521, 531, 541, 551, 561, 571, 581, 591, 601, 611, 621, 631
 641, 651, 661, 671, 681, 691, 701, 711, 721, 731, 741, 751, 761, 771, 781, 791
*Nset, nset=Set-27, instance=plate-1
   2,   3,   6,  16,  17,  18,  19,  20,  21,  22,  23,  24,  25,  26,  27,  28
  29,  30,  31,  32,  33,  34,  35,  36,  37,  38,  39,  40,  41,  42,  43,  44
  45,  46,  47,  48,  49,  50,  51,  52,  53,  54, 151, 152, 153, 154, 155, 156
 157, 158, 159, 160, 161, 162, 163, 164, 165, 166, 167, 168, 169, 170, 171, 172
 173, 174, 175, 176, 177, 178, 179, 180, 181, 182, 183, 184, 185, 186, 187, 188
 189,
*Elset, elset=Set-27, instance=plate-1
  10,  20,  30,  40,  50,  60,  70,  80,  90, 100, 110, 120, 130, 140, 150, 160
 170, 180, 190, 200, 210, 220, 230, 240, 250, 260, 270, 280, 290, 300, 310, 320
 330, 340, 350, 360, 370, 380, 390, 400, 401, 411, 421, 431, 441, 451, 461, 471
 481, 491, 501, 511, 521, 531, 541, 551, 561, 571, 581, 591, 601, 611, 621, 631
 641, 651, 661, 671, 681, 691, 701, 711, 721, 731, 741, 751, 761, 771, 781, 791
*Nset, nset=Set-28, instance=plate-1
   2,   3,   6,  16,  17,  18,  19,  20,  21,  22,  23,  24,  25,  26,  27,  28
  29,  30,  31,  32,  33,  34,  35,  36,  37,  38,  39,  40,  41,  42,  43,  44
  45,  46,  47,  48,  49,  50,  51,  52,  53,  54, 151, 152, 153, 154, 155, 156
 157, 158, 159, 160, 161, 162, 163, 164, 165, 166, 167, 168, 169, 170, 171, 172
 173, 174, 175, 176, 177, 178, 179, 180, 181, 182, 183, 184, 185, 186, 187, 188
 189,
*Elset, elset=Set-28, instance=plate-1
  10,  20,  30,  40,  50,  60,  70,  80,  90, 100, 110, 120, 130, 140, 150, 160
 170, 180, 190, 200, 210, 220, 230, 240, 250, 260, 270, 280, 290, 300, 310, 320
 330, 340, 350, 360, 370, 380, 390, 400, 401, 411, 421, 431, 441, 451, 461, 471
 481, 491, 501, 511, 521, 531, 541, 551, 561, 571, 581, 591, 601, 611, 621, 631
 641, 651, 661, 671, 681, 691, 701, 711, 721, 731, 741, 751, 761, 771, 781, 791
*Nset, nset=Set-29, instance=plate-1
   2,   3,   6,  16,  17,  18,  19,  20,  21,  22,  23,  24,  25,  26,  27,  28
  29,  30,  31,  32,  33,  34,  35,  36,  37,  38,  39,  40,  41,  42,  43,  44
  45,  46,  47,  48,  49,  50,  51,  52,  53,  54, 151, 152, 153, 154, 155, 156
 157, 158, 159, 160, 161, 162, 163, 164, 165, 166, 167, 168, 169, 170, 171, 172
 173, 174, 175, 176, 177, 178, 179, 180, 181, 182, 183, 184, 185, 186, 187, 188
 189,
*Elset, elset=Set-29, instance=plate-1
  10,  20,  30,  40,  50,  60,  70,  80,  90, 100, 110, 120, 130, 140, 150, 160
 170, 180, 190, 200, 210, 220, 230, 240, 250, 260, 270, 280, 290, 300, 310, 320
 330, 340, 350, 360, 370, 380, 390, 400, 401, 411, 421, 431, 441, 451, 461, 471
 481, 491, 501, 511, 521, 531, 541, 551, 561, 571, 581, 591, 601, 611, 621, 631
 641, 651, 661, 671, 681, 691, 701, 711, 721, 731, 741, 751, 761, 771, 781, 791
*Nset, nset=Set-30, instance=plate-1
   2,   3,   6,  16,  17,  18,  19,  20,  21,  22,  23,  24,  25,  26,  27,  28
  29,  30,  31,  32,  33,  34,  35,  36,  37,  38,  39,  40,  41,  42,  43,  44
  45,  46,  47,  48,  49,  50,  51,  52,  53,  54, 151, 152, 153, 154, 155, 156
 157, 158, 159, 160, 161, 162, 163, 164, 165, 166, 167, 168, 169, 170, 171, 172
 173, 174, 175, 176, 177, 178, 179, 180, 181, 182, 183, 184, 185, 186, 187, 188
 189,
*Elset, elset=Set-30, instance=plate-1
  10,  20,  30,  40,  50,  60,  70,  80,  90, 100, 110, 120, 130, 140, 150, 160
 170, 180, 190, 200, 210, 220, 230, 240, 250, 260, 270, 280, 290, 300, 310, 320
 330, 340, 350, 360, 370, 380, 390, 400, 401, 411, 421, 431, 441, 451, 461, 471
 481, 491, 501, 511, 521, 531, 541, 551, 561, 571, 581, 591, 601, 611, 621, 631
 641, 651, 661, 671, 681, 691, 701, 711, 721, 731, 741, 751, 761, 771, 781, 791
*Nset, nset=Set-31, instance=plate-1
   2,   3,   6,  16,  17,  18,  19,  20,  21,  22,  23,  24,  25,  26,  27,  28
  29,  30,  31,  32,  33,  34,  35,  36,  37,  38,  39,  40,  41,  42,  43,  44
  45,  46,  47,  48,  49,  50,  51,  52,  53,  54, 151, 152, 153, 154, 155, 156
 157, 158, 159, 160, 161, 162, 163, 164, 165, 166, 167, 168, 169, 170, 171, 172
 173, 174, 175, 176, 177, 178, 179, 180, 181, 182, 183, 184, 185, 186, 187, 188
 189,
*Elset, elset=Set-31, instance=plate-1
  10,  20,  30,  40,  50,  60,  70,  80,  90, 100, 110, 120, 130, 140, 150, 160
 170, 180, 190, 200, 210, 220, 230, 240, 250, 260, 270, 280, 290, 300, 310, 320
 330, 340, 350, 360, 370, 380, 390, 400, 401, 411, 421, 431, 441, 451, 461, 471
 481, 491, 501, 511, 521, 531, 541, 551, 561, 571, 581, 591, 601, 611, 621, 631
 641, 651, 661, 671, 681, 691, 701, 711, 721, 731, 741, 751, 761, 771, 781, 791
*Nset, nset=Set-32, instance=plate-1
   2,   3,   6,  16,  17,  18,  19,  20,  21,  22,  23,  24,  25,  26,  27,  28
  29,  30,  31,  32,  33,  34,  35,  36,  37,  38,  39,  40,  41,  42,  43,  44
  45,  46,  47,  48,  49,  50,  51,  52,  53,  54, 151, 152, 153, 154, 155, 156
 157, 158, 159, 160, 161, 162, 163, 164, 165, 166, 167, 168, 169, 170, 171, 172
 173, 174, 175, 176, 177, 178, 179, 180, 181, 182, 183, 184, 185, 186, 187, 188
 189,
*Elset, elset=Set-32, instance=plate-1
  10,  20,  30,  40,  50,  60,  70,  80,  90, 100, 110, 120, 130, 140, 150, 160
 170, 180, 190, 200, 210, 220, 230, 240, 250, 260, 270, 280, 290, 300, 310, 320
 330, 340, 350, 360, 370, 380, 390, 400, 401, 411, 421, 431, 441, 451, 461, 471
 481, 491, 501, 511, 521, 531, 541, 551, 561, 571, 581, 591, 601, 611, 621, 631
 641, 651, 661, 671, 681, 691, 701, 711, 721, 731, 741, 751, 761, 771, 781, 791
*Nset, nset=Set-36, instance="layer 1/6-1"
    5,    6,    9, 1983, 1984, 1985, 1986, 1987, 1988, 1989, 1990, 1991, 1992, 1993, 1994, 1995
 1996, 1997, 1998, 1999, 2000, 2001, 2002, 2003, 2004, 2005, 2006, 2007, 2008, 2009, 2010, 2011
 2012, 2061, 2062, 2063, 2064, 2065, 2066, 2067, 2068, 2069, 2070, 2071, 2072, 2073, 2074, 2075
 2076, 2077, 2078, 2079, 2080, 2081, 2082, 2083, 2084, 2085, 2086, 2087, 2088, 2089, 2090
*Elset, elset=Set-36, instance="layer 1/6-1"
 34632, 34633, 34634, 34635, 34646, 34647, 34648, 34662, 34663, 34664, 34691, 34698, 34701, 34702, 34708, 34710
 34711, 34719, 34720, 34721, 34819, 34861, 34862, 34863, 34864, 34865, 41248, 41614, 41616, 41618, 41620, 43754
 43755, 43802, 43811, 43812, 43820, 43821, 43823, 43835, 43836, 43839, 43845, 43850, 43851, 43855, 43868, 43921
 43931, 43937, 43938, 43987, 43988, 43990, 43991, 43992, 43993, 43994, 43995, 50324, 50372, 50377
*Nset, nset=m_Set-8, instance=plate-1
 1,
*Nset, nset=m_Set-10
 2,
*Elset, elset=_m_Surf-1_S2, internal, instance=plate-1, generate
  10,  400,   10
*Elset, elset=_m_Surf-1_S4, internal, instance=plate-1, generate
 401,  791,   10
*Surface, type=ELEMENT, name=m_Surf-1
_m_Surf-1_S2, S2
_m_Surf-1_S4, S4
*Elset, elset=_m_Surf-4_S2, internal, instance=plate-1, generate
  10,  400,   10
*Elset, elset=_m_Surf-4_S4, internal, instance=plate-1, generate
 401,  791,   10
*Surface, type=ELEMENT, name=m_Surf-4
_m_Surf-4_S2, S2
_m_Surf-4_S4, S4
*Elset, elset=_m_Surf-10_S2, internal, instance=plate-1, generate
  10,  400,   10
*Elset, elset=_m_Surf-10_S4, internal, instance=plate-1, generate
 401,  791,   10
*Surface, type=ELEMENT, name=m_Surf-10
_m_Surf-10_S2, S2
_m_Surf-10_S4, S4
*Elset, elset=_m_Surf-12_S3, internal, instance=plate-1, generate
 391,  400,    1
*Surface, type=ELEMENT, name=m_Surf-12
_m_Surf-12_S3, S3
*Elset, elset=_s_Surf-3_S2, internal, instance=plate-1, generate
  10,  400,   10
*Elset, elset=_s_Surf-3_S4, internal, instance=plate-1, generate
 401,  791,   10
*Surface, type=ELEMENT, name=s_Surf-3
_s_Surf-3_S2, S2
_s_Surf-3_S4, S4
*Elset, elset=_s_Surf-4_S2, internal, instance=plate-1, generate
 410,  800,   10
*Elset, elset=_s_Surf-4_S4, internal, instance=plate-1, generate
   1,  391,   10
*Surface, type=ELEMENT, name=s_Surf-4
_s_Surf-4_S2, S2
_s_Surf-4_S4, S4
*Elset, elset=_s_Surf-8_S2, internal, instance=plate-1, generate
  10,  400,   10
*Elset, elset=_s_Surf-8_S4, internal, instance=plate-1, generate
 401,  791,   10
*Surface, type=ELEMENT, name=s_Surf-8
_s_Surf-8_S2, S2
_s_Surf-8_S4, S4
*Elset, elset=_s_Surf-10_S3, internal, instance=plate-1
 391, 392, 393, 394, 395, 396, 397, 398, 399, 400, 791, 792, 793, 794, 795, 796
 797, 798, 799, 800
*Surface, type=ELEMENT, name=s_Surf-10
_s_Surf-10_S3, S3
*Elset, elset=_s_Surf-12_S3, internal, instance=plate-1, generate
 791,  800,    1
*Surface, type=ELEMENT, name=s_Surf-12
_s_Surf-12_S3, S3
*Elset, elset=_s_Surf-14_S2, internal, instance=plate-1, generate
  10,  400,   10
*Elset, elset=_s_Surf-14_S4, internal, instance=plate-1, generate
 401,  791,   10
*Surface, type=ELEMENT, name=s_Surf-14
_s_Surf-14_S2, S2
_s_Surf-14_S4, S4
** Constraint: Top-Bottom
*Tie, name=Top-Bottom, adjust=yes
plate-1."top surrface", plate-1."bottom surface"
*Elset, elset="__general contact_gcs0_10_S1", internal, instance="layer 1/6-1"
    53,   596,   602,  1113,  1254,  1273,  1275,  1283,  1298,  1310,  1314,  1354,  1360,  1681,  1857,  1945
  1950,  2016,  2188,  2287,  3072,  3191,  3406,  3469,  3483,  3486,  3705,  3733,  3736,  3746,  3749,  3754
  3768,  3769,  3775,  3784,  3807,  3809,  3810,  3811,  3812,  3816,  3817,  3820,  3822,  3920,  4130,  4131
  4132,  4135,  4136,  4137,  4144,  4176,  4183,  4209,  4210,  4218,  4247,  4258,  4297,  4299,  4300,  4303
  4308,  4312,  4354,  4430,  4437,  9674, 11799, 11945, 11954, 11959, 11967, 11973, 11974, 11988, 11989, 12015
*Elset, elset="__general contact_gcs0_10_S3", internal, instance="layer 1/6-1"
   594,   695,  1097,  1186,  1216,  1227,  1234,  1292,  1319,  1341,  1344,  1364,  3184,  3688,  3771,  3781
  3782,  3785,  3793,  3796,  3799,  3801,  3804,  3805,  3813,  3819,  3821,  4159,  4166,  4180,  4182,  4188
  4193,  4198,  4219,  4244,  4250,  4272,  4274,  4306,  4309,  4313,  4317,  4318,  4322,  4326,  4344,  4363
  4425,  4518,  4538,  4670,  4918, 11800, 11946, 11949, 11952, 11960, 11963, 11971, 11976, 11979, 11983, 11985
 12006, 12012, 12026
*Elset, elset="__general contact_gcs0_10_S4", internal, instance="layer 1/6-1"
   595,   604,   622,   630,  1110,  1120,  1130,  1146,  1160,  1161,  1189,  1190,  1200,  1242,  1252,  1268
  1270,  1272,  1280,  1291,  1297,  1299,  1316,  1337,  1347,  2189,  2288,  2394,  2545,  2574,  2677,  3023
  3051,  3081,  3085,  3165,  3312,  3316,  3354,  3385,  3386,  3451,  3502,  3542,  3554,  3562,  3563,  3687
  3707,  3711,  3713,  3717,  3719,  3721,  3722,  3724,  3726,  3734,  3740,  3753,  3755,  3758,  3764,  3765
  3770,  3774,  3777,  3780,  3792,  3798,  3802,  3808,  3825,  3830,  4138,  4147,  4151,  4153,  4155,  4160
  4161,  4167,  4168,  4169,  4171,  4172,  4174,  4175,  4178,  4185,  4187,  4190,  4191,  4192,  4202,  4206
  4213,  4217,  4224,  4225,  4230,  4233,  4242,  4245,  4249,  4254,  4261,  4265,  4267,  4269,  4271,  4278
  4280,  4282,  4286,  4288,  4292,  4479,  4516,  5053,  5575, 11646, 11709, 11720, 11726, 11729, 11762, 11777
 11784, 11962, 12032, 12038, 12045
*Elset, elset="__general contact_gcs0_10_S2", internal, instance="layer 1/6-1"
   603,  1092,  1109,  1112,  1114,  1119,  1147,  1159,  1201,  1217,  1224,  1226,  1233,  1240,  1267,  1277
  1278,  1301,  1317,  2544,  2678,  2830,  3022,  3088,  3190,  3224,  3266,  3267,  3277,  3292,  3298,  3302
  3355,  3373,  3397,  3419,  3429,  3436,  3461,  3489,  3497,  3498,  3499,  3530,  3543,  3703,  3706,  3708
  3709,  3712,  3718,  3720,  3723,  3725,  3727,  3728,  3730,  3731,  3732,  3735,  3738,  3739,  3742,  3745
  3747,  3748,  3760,  3761,  3762,  3763,  3766,  3773,  3779,  3787,  3789,  3790,  3794,  3800,  3814,  3824
  3827,  4129,  4133,  4134,  4143,  4146,  4150,  4152,  4156,  4158,  4165,  4170,  4173,  4177,  4179,  4181
  4189,  4194,  4199,  4200,  4205,  4211,  4214,  4216,  4220,  4221,  4226,  4227,  4229,  4232,  4235,  4236
  4237,  4238,  4241,  4248,  4251,  4252,  4275,  4276,  4284,  4287,  4290,  4295,  4296,  4301,  4302,  4304
  4311,  4321,  4334,  4341,  4358,  4424,  4496,  4520,  4535,  4807,  4929,  5125,  5157,  5169,  5681,  9780
 11678, 11681, 11691, 11693, 11698, 11699, 11704, 11708, 11716, 11719, 11730, 11732, 11733, 11734, 11736, 11737
 11738, 11740, 11742, 11743, 11744, 11746, 11747, 11754, 11755, 11756, 11758, 11765, 11768, 11774, 11776, 11782
 11788, 11789, 11796, 11797, 11798, 11947, 12007, 12009, 12013, 12018, 12019, 12020, 12025, 12027, 12033, 12034
 12035, 12036, 12037, 12040, 12044
*Surface, type=ELEMENT, name="_general contact_gcs0_10", internal
"__general contact_gcs0_10_S1", S1
"__general contact_gcs0_10_S3", S3
"__general contact_gcs0_10_S4", S4
"__general contact_gcs0_10_S2", S2
*Elset, elset="__general contact_gcs0_12_S2", internal, instance="layer 1/6-1"
 17264, 17856, 17987, 17988, 17991, 17992, 17996, 18230, 18235, 18236, 18248, 18256, 18259, 18339, 18340, 18341
 18345, 18346, 18392, 18394, 18396, 18398, 18399, 18400, 18406, 18425, 18474, 18475, 18572, 18621, 18623, 18634
 19221, 19269, 19535, 19670, 19873, 19874, 19917, 19918, 20249, 20257, 20326, 20332, 20628, 20630, 20634, 20659
 20716, 20772, 20773, 20831, 20838, 20955, 20957, 20960, 20965, 20972, 20974, 20978, 20985, 20989, 20991, 20994
 21000, 21002, 21006, 21008, 21012, 21013, 21017, 21020, 21022, 21030, 21033, 21035, 21049, 21053, 21054, 21058
 21060, 21061, 21062, 21066, 21068, 21087, 21215, 21377, 21384, 21385, 21395, 21397, 21400, 21401, 21402, 21404
 21405, 21408, 21411, 21412, 21417, 21418, 21422, 21423, 21429, 21430, 21432, 21435, 21436, 21437, 21439, 21447
 21448, 21450, 21455, 21457, 21462, 21463, 21464, 21467, 21472, 21475, 21478, 21480, 21487, 21488, 21491, 21492
 21493, 21496, 21501, 21504, 21506, 21509, 21516, 21517, 21520, 21525, 21545, 21547, 21548, 21552, 21553, 21555
 21558, 21560, 21562, 21563, 21566, 21570, 21575, 21587, 21588, 21610, 21613, 21678, 21679, 21692, 21749, 21852
 21984, 22069, 22685, 22959, 29033, 29034, 29036, 29045, 29051, 29052, 29056, 29058, 29060, 29064, 29079, 29080
 29086, 29087, 29088, 29089, 29094, 29096, 29101, 29107, 29109, 29118, 29119, 29121, 29131, 29135, 29136, 29140
 29146, 29147, 29150, 29164, 29168, 29172, 29177, 29185
*Elset, elset="__general contact_gcs0_12_S1", internal, instance="layer 1/6-1"
 17858, 17990, 17994, 18238, 18258, 18393, 18407, 18408, 18435, 18437, 18450, 18472, 18622, 18630, 20357, 20797
 20816, 20990, 21001, 21005, 21011, 21027, 21032, 21040, 21042, 21045, 21051, 21065, 21373, 21391, 21433, 21434
 21443, 21449, 21483, 21498, 21518, 21524, 21536, 21539, 21541, 21544, 21551, 21556, 21559, 21573, 21576, 21710
 21711, 21777, 22064, 22988, 28825, 28830, 29127, 29129, 29173, 29182, 29184
*Elset, elset="__general contact_gcs0_12_S4", internal, instance="layer 1/6-1"
 17989, 17995, 18058, 18106, 18171, 18225, 18246, 18253, 18255, 18263, 18336, 18348, 18358, 18401, 18404, 18414
 18420, 18424, 18426, 18427, 18432, 18433, 18440, 18459, 18468, 18479, 18486, 18575, 19307, 19308, 19537, 19620
 19872, 19880, 19881, 19883, 20127, 20331, 20586, 20631, 20632, 20802, 20825, 20835, 20837, 20949, 20958, 20961
 20963, 20967, 20969, 20970, 20971, 20975, 20976, 20977, 20979, 20980, 20981, 20982, 20984, 20993, 20995, 20996
 20997, 20998, 20999, 21003, 21009, 21014, 21015, 21019, 21023, 21025, 21028, 21029, 21034, 21036, 21038, 21050
 21052, 21057, 21059, 21085, 21086, 21375, 21378, 21379, 21413, 21415, 21419, 21420, 21421, 21424, 21425, 21426
 21428, 21431, 21440, 21445, 21446, 21452, 21453, 21454, 21456, 21459, 21460, 21473, 21490, 21502, 21505, 21507
 21508, 21510, 21514, 21521, 21527, 21532, 21533, 21534, 21535, 21537, 21538, 21543, 21549, 21561, 21564, 21567
 21585, 21682, 21771, 21773, 21895, 22383, 22451, 22571, 22861, 22864, 23233, 27130, 29044, 29054, 29125, 29126
 29144, 29148, 29160, 29166, 29169
*Elset, elset="__general contact_gcs0_12_S3", internal, instance="layer 1/6-1"
 17993, 18105, 18108, 18110, 18227, 18229, 18247, 18357, 18402, 18449, 18456, 18462, 18469, 18485, 18487, 18488
 19222, 19811, 19936, 20128, 20248, 20360, 20771, 20834, 20836, 20948, 20950, 20953, 20964, 20988, 21004, 21021
 21039, 21047, 21064, 21067, 21372, 21374, 21380, 21383, 21388, 21389, 21393, 21399, 21409, 21414, 21416, 21468
 21470, 21477, 21482, 21497, 21499, 21503, 21512, 21513, 21522, 21531, 23031, 28822, 28833, 29043, 29061, 29066
 29111, 29124, 29142, 29159, 29171
*Surface, type=ELEMENT, name="_general contact_gcs0_12", internal
"__general contact_gcs0_12_S2", S2
"__general contact_gcs0_12_S1", S1
"__general contact_gcs0_12_S4", S4
"__general contact_gcs0_12_S3", S3
*Elset, elset="__general contact_gcs0_14_S2", internal, instance="layer 1/6-1"
 34632, 34634, 34698
*Elset, elset="__general contact_gcs0_14_S4", internal, instance="layer 1/6-1"
 34633, 34635, 34711, 41248
*Elset, elset="__general contact_gcs0_14_S1", internal, instance="layer 1/6-1"
 34646, 34720, 34861, 34862, 34863, 34865, 41614, 41616, 41618
*Elset, elset="__general contact_gcs0_14_S3", internal, instance="layer 1/6-1"
 34647, 34648, 34662, 34663, 34664, 34691, 34701, 34702, 34708, 34710, 34719, 34721, 34819, 34864, 41620
*Surface, type=ELEMENT, name="_general contact_gcs0_14", internal
"__general contact_gcs0_14_S2", S2
"__general contact_gcs0_14_S4", S4
"__general contact_gcs0_14_S1", S1
"__general contact_gcs0_14_S3", S3
*Elset, elset="__general contact_gcs0_16_S2", internal, instance="layer 1/6-1"
 34670, 34738, 34746, 41610, 41630
*Elset, elset="__general contact_gcs0_16_S4", internal, instance="layer 1/6-1"
 34671, 34735, 34736, 34742, 34810, 34867, 35169, 35727, 41883
*Elset, elset="__general contact_gcs0_16_S1", internal, instance="layer 1/6-1"
 35173, 36021
*Surface, type=ELEMENT, name="_general contact_gcs0_16", internal
"__general contact_gcs0_16_S2", S2
"__general contact_gcs0_16_S4", S4
"__general contact_gcs0_16_S1", S1
*Elset, elset="__general contact_gcs0_17_S2", internal, instance="layer 1/6-1"
 43449,
*Elset, elset="__general contact_gcs0_17_S3", internal, instance="layer 1/6-1"
 43745, 43747, 43762, 43780, 43793, 50335, 50337, 50338
*Elset, elset="__general contact_gcs0_17_S4", internal, instance="layer 1/6-1"
 43778, 43984
*Elset, elset="__general contact_gcs0_17_S1", internal, instance="layer 1/6-1"
 43779, 43792, 43888, 43999, 50336
*Surface, type=ELEMENT, name="_general contact_gcs0_17", internal
"__general contact_gcs0_17_S2", S2
"__general contact_gcs0_17_S3", S3
"__general contact_gcs0_17_S4", S4
"__general contact_gcs0_17_S1", S1
*Elset, elset="__general contact_gcs0_19_S4", internal, instance="layer 1/6-1"
 43754, 43755, 43811, 43812, 43820, 43821, 43823, 43921, 43937, 43938
*Elset, elset="__general contact_gcs0_19_S2", internal, instance="layer 1/6-1"
 43802, 43845, 43850, 43868, 43931, 43987, 43991, 43992, 43993, 43994, 43995, 50377
*Elset, elset="__general contact_gcs0_19_S3", internal, instance="layer 1/6-1"
 43835, 43839, 43990
*Elset, elset="__general contact_gcs0_19_S1", internal, instance="layer 1/6-1"
 43836, 43851, 43855, 43988, 50324, 50372
*Surface, type=ELEMENT, name="_general contact_gcs0_19", internal
"__general contact_gcs0_19_S4", S4
"__general contact_gcs0_19_S2", S2
"__general contact_gcs0_19_S3", S3
"__general contact_gcs0_19_S1", S1
*End Assembly
** 
** MATERIALS
** 
*Material, name=elastomer
*Density
1175.,
*Hyperelastic, neo hooke
<C10>,0.
*Material, name=steel
*Density
7850.,
*Elastic
 2.1e+11, 0.3
** 
** INTERACTION PROPERTIES
** 
*Surface Interaction, name=frict
1.,
*Friction, slip tolerance=0.005
 1.045,
** 
** BOUNDARY CONDITIONS
** 
** Name: fix_all_nodes Type: Symmetry/Antisymmetry/Encastre
*Boundary
plate-1.all_nodes, XSYMM
** Name: fix_all_sides Type: Symmetry/Antisymmetry/Encastre
*Boundary
Set-2, XSYMM
** Name: fix_inner_layer Type: Symmetry/Antisymmetry/Encastre
*Boundary
Set-36, ENCASTRE
** 
** INTERACTIONS
** 
** Interaction: general contact
*Contact
*Contact Inclusions, ALL EXTERIOR
*Contact Property Assignment
 ,  , frict
*Surface Property Assignment, property=GEOMETRIC CORRECTION
"_general contact_gcs0_10", Circumferential, 0.04, 0.08669
"_general contact_gcs0_12", Circumferential, 0.04, 0.08669
"_general contact_gcs0_14", Circumferential, 0.04, 0.08669
"_general contact_gcs0_16", Circumferential, 0.04, 0.08669
"_general contact_gcs0_17", Circumferential, 0.04, 0.08669
"_general contact_gcs0_19", Circumferential, 0.04, 0.08669
** ----------------------------------------------------------------
** 
** STEP: press
** 
*Step, name=press, nlgeom=YES
*Static
0.01, 1., 1e-05, 0.01
** 
** BOUNDARY CONDITIONS
** 
** Name: press Type: Displacement/Rotation
*Boundary
Set-32, 1, 1
Set-32, 2, 2, 0.003
Set-32, 6, 6
** 
** OUTPUT REQUESTS
** 
*Restart, write, frequency=0
** 
** FIELD OUTPUT: F-Output-1
** 
*Output, field, variable=PRESELECT
** 
** HISTORY OUTPUT: H-Output-3
** 
*Output, history
*Contact Output
CAREA, CFT2
** 
** HISTORY OUTPUT: H-Output-1
** 
*Node Output, nset=plate-1.one_node
U2, 
** 
** HISTORY OUTPUT: H-Output-2
** 
*Node Output, nset=plate-1.under_node
CF2, RF2, U2
*End Step
