*Heading
** Job name: press Model name: Model-1
** Generated by: Abaqus/CAE 2022
*Preprint, echo=NO, model=NO, history=NO, contact=NO
**
** PARTS
**
*Part, name=layer
*Node
      1, -0.00300664804, 0.0599246211, 0.00200000009
      2, -0.00600574166, 0.0596986674, 0.00200000009
      3, -0.00898974482, 0.0593227148, 0.00200000009
      4, -0.0119511588, 0.0587977022, 0.00200000009
      5, -0.0148825441,  0.058124952, 0.00200000009
      6, -0.017776534, 0.0573061481, 0.00200000009
      7, -0.0206258595,  0.056343358, 0.00200000009
      8, -0.0234233569,  0.055238992, 0.00200000009
      9, -0.0261619985, 0.0539958328, 0.00200000009
     10, -0.0288349055, 0.0526169948, 0.00200000009
     11, -0.0314353593,   0.05110595, 0.00200000009
     12, -0.0339568257, 0.0494664945, 0.00200000009
     13, -0.0363929719, 0.0477027446, 0.00200000009
     14, -0.0387376696, 0.0458191335, 0.00200000009
     15, -0.0409850366, 0.0438203923, 0.00200000009
     16, -0.0431294218, 0.0417115465, 0.00200000009
     17, -0.0451654345, 0.0394978933, 0.00200000009
     18, -0.0470879637, 0.0371849947, 0.00200000009
     19, -0.0488921739,  0.034778662, 0.00200000009
     20, -0.0505735353, 0.0322849415, 0.00200000009
** ... 15616 like lines cut
*Element, type=C3D8RH
   1,  6532,  5339,  6148,  9757,  1320,   127,   936,  4545
   2,  7163,  5522,  8371,  7856,  1951,   310,  3159,  2644
   3,  7690,  5520,  7984,  7880,  2478,   308,  2772,  2668
   4,  5520,  7758,  7916,  7984,   308,  2546,  2704,  2772
   5,  7758,  5519,  8426,  7916,  2546,   307,  3214,  2704
   6,  9770,  8949,  8979,  9830,  4558,  3737,  3767,  4618
   7,  8383,  9892,  8532,  5517,  3171,  4680,  3320,   305
   8,  8647,  8437,  8234,  8869,  3435,  3225,  3022,  3657
   9,  5515,  8895,  8869,  8234,   303,  3683,  3657,  3022
  10,  8962,  9079, 10090,  6256,  3750,  3867,  4878,  1044
  11,  6255,  8776,  8119,  9934,  1043,  3564,  2907,  4722
  12,  7815,  8098, 10091,  5511,  2603,  2886,  4879,   299
  13,  7815,  5511,  8327,  8096,  2603,   299,  3115,  2884
  14,  5509,  9518,  9376,  9503,   297,  4306,  4164,  4291
  15,  9518,  9380,  9939,  9376,  4306,  4168,  4727,  4164
  16,  5425,  6701,  7462,  6252,   213,  1489,  2250,  1040
  17,  6998,  6253,  7484,  7462,  1786,  1041,  2272,  2250
  18,  7126,  6998,  6700,  5424,  1914,  1786,  1488,   212
  19,  8098,  7815,  7484,  6253,  2886,  2603,  2272,  1041
  20,  5272,  6400,  7397,  7313,    60,  1188,  2185,  2101
** ... 9588 like lines cut
*Nset, nset=Set-1, generate
     1,  15636,      1
*Elset, elset=Set-1, generate
    1,  9608,     1
*Nset, nset="contact surface"
   130,   131,   132,   133,   134,   135,   136,   137,   138,   139,   140,   141,   142,   143,   144,   145
   146,   147,   148,   149,   150,   151,   152,   153,   154,   155,   156,   157,   158,   159,   160,   161
   162,   163,   164,   165,   166,   167,   168,   169,   170,   171,   172,   173,   174,   175,   176,   177
   178,   179,   180,   181,   182,   183,   184,   185,   186,   187,   188,   189,   190,   191,   192,   193
   194,   195,   196,   197,   198,   199,   200,   201,   202,   203,   204,   205,   206,   207,   208,   209
   210,   211,   212,   213,   214,   215,   216,   217,   218,   219,   220,   221,   222,   223,   224,   225
   226,   227,   228,   229,   230,   231,   232,   233,   234,   235,   236,   237,   238,   239,   240,   241
   242,   243,   244,   245,   246,   247,   248,   249,   250,   251,   252,   253,   254,   255,   256,   257
   258,   259,   260,   261,   262,   263,   264,   265,   266,   267,   268,   269,   270,   271,   272,   273
   274,   275,   276,   277,  1326,  1327,  1328,  1329,  1330,  1331,  1332,  1333,  1334,  1335,  1336,  1337
  1338,  1339,  1340,  1341,  1342,  1343,  1344,  1345,  1346,  1347,  1348,  1349,  1350,  1351,  1352,  1353
  1354,  1355,  1356,  1357,  1358,  1359,  1360,  1361,  1362,  1363,  1364,  1365,  1366,  1367,  1368,  1369
  1370,  1371,  1372,  1373,  1374,  1375,  1376,  1377,  1378,  1379,  1380,  1381,  1382,  1383,  1384,  1385
  1386,  1387,  1388,  1389,  1390,  1391,  1392,  1393,  1394,  1395,  1396,  1397,  1398,  1399,  1400,  1401
  1402,  1403,  1404,  1405,  1406,  1407,  1408,  1409,  1410,  1411,  1412,  1413,  1414,  1415,  1416,  1417
  1418,  1419,  1420,  1421,  1422,  1423,  1424,  1425,  1426,  1427,  1428,  1429,  1430,  1431,  1432,  1433
  1434,  1435,  1436,  1437,  1438,  1439,  1440,  1441,  1442,  1443,  1444,  1445,  1446,  1447,  1448,  1449
  1450,  1451,  1452,  1453,  1454,  1455,  1456,  1457,  1458,  1459,  1460,  1461,  1462,  1463,  1464,  1465
  1466,  1467,  1468,  1469,  1470,  1471,  1472,  1473,  1474,  1475,  1476,  1477,  1478,  1479,  1480,  1481
  1482,  1483,  1484,  1485,  1486,  1487,  1488,  1489,  1490,  1491,  1492,  1493,  1494,  1495,  1496,  1497
** ... 63 like lines cut
*Elset, elset="contact surface"
   16,   18,   65,   76,   77,  117,  118,  119,  130,  131,  132,  133,  134,  147,  149,  150
  166,  167,  168,  169,  170,  182,  196,  197,  207,  209,  304,  324,  333,  334,  335,  336
  352,  353,  354,  393,  394,  396,  409,  411,  421,  492,  493,  494,  537,  538,  568,  569
  570,  577,  578,  587,  588,  616,  617,  620,  621,  623,  629,  630,  631,  636,  646,  648
  649,  660,  662,  666,  667,  668,  669,  670,  680,  685,  686,  692,  694,  695,  696,  697
  698,  699,  711,  714,  715,  716,  717,  718,  719,  726,  738,  739,  741,  747,  748,  749
  750,  760,  762,  768,  769,  770,  776,  778,  779,  780,  781,  782,  783,  797,  798,  802
  803,  804,  811,  812,  816,  817,  821,  826,  831,  832,  833,  836,  851,  852,  859,  860
  861,  863,  866,  870,  871,  874,  876,  884,  890,  892,  893,  894,  895,  896,  897,  899
  912,  913,  918,  920,  921,  922,  923,  924,  925,  926,  929,  937,  941,  945,  948,  953
  954,  956,  957,  960,  961,  963,  964,  965,  966,  972,  973,  975,  976,  977,  981,  982
  984,  995,  996, 1004, 1005, 1006, 1009, 1010, 1011, 1012, 1023, 1025, 1031, 1047, 1071, 1091
 1093, 1096, 1099, 1102, 1114, 1119, 1126, 1148, 1165, 1201, 1234, 1236, 1271, 1273, 1280, 1291
 1319, 1320, 1336, 1337, 1339, 1343, 1373, 1374, 1424, 1434, 1475, 1476, 1529, 1553, 1576, 1580
 1600, 1614, 1660, 1662, 1674, 1675, 1677, 1678, 1693, 1694, 1702, 1714, 1737, 1738, 1743, 1746
 1747, 1875, 1877, 1878, 1879, 1880, 1881, 1882, 1883, 1884, 1885, 1886, 1887, 1888, 1889, 1890
 1891, 1892, 1893, 1895, 1896, 1897, 1898, 1899, 1900, 1901, 1902, 1903, 1904, 1905, 1906, 1907
 1908, 1909, 1910, 1911, 1912, 1913, 1914, 1915, 1916, 1917, 1918, 1919, 1920, 1921, 1922, 1923
 1924, 1925, 1926, 1927, 1928, 1929, 1930, 1931, 1932, 1933, 1934, 1935, 1936, 1937, 1938, 1939
 1940, 1941, 1942, 1943, 1944, 1945, 1946, 1947, 1948, 1949, 1950, 1951, 1953, 1954, 1955, 1956
** ... 35 like lines cut
** Section: elastomer
*Solid Section, elset=Set-1, material=elastomer
,
*End Part
**  
*Part, name=plate
*Node
      1,           0., 0.0375000015, 0.00200000009
      2,           0., 0.0384999998, 0.00200000009
      3,           0., 0.0395000018, 0.00200000009
      4,           0., 0.0405000001, 0.00200000009
      5,           0., 0.0414999984, 0.00200000009
      6,           0., 0.0425000004, 0.00200000009
      7,           0., 0.0375000015, 0.00100000005
      8,           0., 0.0384999998, 0.00100000005
      9,           0., 0.0395000018, 0.00100000005
     10,           0., 0.0405000001, 0.00100000005
     11,           0., 0.0414999984, 0.00100000005
     12,           0., 0.0425000004, 0.00100000005
     13,           0., 0.0375000015,           0.
     14,           0., 0.0384999998,           0.
     15,           0., 0.0395000018,           0.
     16,           0., 0.0405000001,           0.
     17,           0., 0.0414999984,           0.
     18,           0., 0.0425000004,           0.
     19, 0.00100000005, 0.0375000015, 0.00200000009
     20, 0.00100000005, 0.0384999998, 0.00200000009
** ... 1078 like lines cut
*Element, type=C3D8R
  1,   19,   20,   26,   25,    1,    2,    8,    7
  2,   20,   21,   27,   26,    2,    3,    9,    8
  3,   21,   22,   28,   27,    3,    4,   10,    9
  4,   22,   23,   29,   28,    4,    5,   11,   10
  5,   23,   24,   30,   29,    5,    6,   12,   11
  6,   25,   26,   32,   31,    7,    8,   14,   13
  7,   26,   27,   33,   32,    8,    9,   15,   14
  8,   27,   28,   34,   33,    9,   10,   16,   15
  9,   28,   29,   35,   34,   10,   11,   17,   16
 10,   29,   30,   36,   35,   11,   12,   18,   17
 11,   37,   38,   44,   43,   19,   20,   26,   25
 12,   38,   39,   45,   44,   20,   21,   27,   26
 13,   39,   40,   46,   45,   21,   22,   28,   27
 14,   40,   41,   47,   46,   22,   23,   29,   28
 15,   41,   42,   48,   47,   23,   24,   30,   29
 16,   43,   44,   50,   49,   25,   26,   32,   31
 17,   44,   45,   51,   50,   26,   27,   33,   32
 18,   45,   46,   52,   51,   27,   28,   34,   33
 19,   46,   47,   53,   52,   28,   29,   35,   34
 20,   47,   48,   54,   53,   29,   30,   36,   35
** ... 580 like lines cut
*Nset, nset=Set-1, generate
    1,  1098,     1
*Elset, elset=Set-1, generate
   1,  600,    1
*Nset, nset=contact_surface, generate
    6,  1098,     6
*Elset, elset=contact_surface, generate
   5,  600,    5
*Nset, nset=all_nodes, generate
    1,  1098,     1
*Nset, nset=one_node
 546,
** Section: steel
*Solid Section, elset=Set-1, material=steel
,
*End Part
**  
**
** ASSEMBLY
**
*Assembly, name=Assembly
**  
*Instance, name=plate-1, part=plate
*End Instance
**  
*Instance, name=layer-1, part=layer
        0.03,       0.1125,           0.
*End Instance
**  
*Nset, nset=Set-2, instance=layer-1
     1,     2,     3,     4,     5,     6,     7,     8,     9,    10,    11,    12,    13,    14,    15,    16
    17,    18,    19,    20,    21,    22,    23,    24,    25,    26,    27,    28,    29,    30,    31,    32
    33,    34,    35,    36,    37,    38,    39,    40,    41,    42,    43,    44,    45,    46,    47,    48
    49,    50,    51,    52,    53,    54,    55,    56,    57,    58,    59,    60,    61,    62,    63,    64
    65,    66,    67,    68,    69,    70,    71,    72,    73,    74,    75,    76,    77,    78,    79,    80
    81,    82,    83,    84,    85,    86,    87,    88,    89,    90,    91,    92,    93,    94,    95,    96
    97,    98,    99,   100,   101,   102,   103,   104,   105,   106,   107,   108,   109,   110,   111,   112
   113,   114,   115,   116,   117,   118,   119,   120,   121,   122,   123,   124,   125,   126,  1070,  1071
  1072,  1073,  1074,  1075,  1076,  1077,  1078,  1079,  1080,  1081,  1082,  1083,  1084,  1085,  1086,  1087
  1088,  1089,  1090,  1091,  1092,  1093,  1094,  1095,  1096,  1097,  1098,  1099,  1100,  1101,  1102,  1103
  1104,  1105,  1106,  1107,  1108,  1109,  1110,  1111,  1112,  1113,  1114,  1115,  1116,  1117,  1118,  1119
  1120,  1121,  1122,  1123,  1124,  1125,  1126,  1127,  1128,  1129,  1130,  1131,  1132,  1133,  1134,  1135
  1136,  1137,  1138,  1139,  1140,  1141,  1142,  1143,  1144,  1145,  1146,  1147,  1148,  1149,  1150,  1151
  1152,  1153,  1154,  1155,  1156,  1157,  1158,  1159,  1160,  1161,  1162,  1163,  1164,  1165,  1166,  1167
  1168,  1169,  1170,  1171,  1172,  1173,  1174,  1175,  1176,  1177,  1178,  1179,  1180,  1181,  1182,  1183
  1184,  1185,  1186,  1187,  1188,  1189,  1190,  1191,  1192,  1193,  1194,  1195,  1196,  1197,  1198,  1199
  1200,  1201,  1202,  1203,  1204,  1205,  1206,  1207,  1208,  1209,  1210,  1211,  1212,  1213,  1214,  1215
  1216,  1217,  1218,  1219,  1220,  1221,  1222,  1223,  1224,  1225,  1226,  1227,  1228,  1229,  1230,  1231
  1232,  1233,  1234,  1235,  1236,  1237,  1238,  1239,  1240,  1241,  1242,  1243,  1244,  1245,  1246,  1247
  1248,  1249,  1250,  1251,  1252,  1253,  1254,  1255,  1256,  1257,  1258,  1259,  1260,  1261,  1262,  1263
** ... 51 like lines cut
*Elset, elset=Set-2, instance=layer-1
   20,   22,   23,   25,   27,   28,   29,   35,   36,   45,   46,   47,   52,   54,   56,   58
   59,   85,   91,   92,   93,   94,   96,   97,   99,  109,  111,  124,  138,  142,  143,  155
  158,  175,  176,  177,  190,  191,  201,  203,  204,  219,  220,  222,  224,  225,  226,  237
  238,  241,  243,  247,  248,  254,  260,  264,  266,  267,  268,  269,  270,  272,  280,  281
  282,  284,  289,  290,  294,  298,  299,  305,  306,  312,  318,  326,  328,  329,  343,  344
  357,  359,  360,  362,  363,  364,  365,  376,  377,  378,  379,  380,  382,  383,  385,  388
  400,  401,  402,  403,  415,  416,  417,  427,  431,  439,  441,  443,  445,  450,  451,  461
  462,  463,  464,  465,  469,  473,  484,  485,  487,  497,  498,  499,  504,  510,  511,  514
  517,  518,  519,  530,  532,  546,  548,  553,  556,  558,  559,  560,  571,  572,  573,  594
  595,  596,  643,  679,  725,  733,  745,  746,  775,  790,  791,  825,  908, 1018, 1052, 1053
 1055, 1087, 1088, 1103, 1116, 1117, 1134, 1150, 1154, 1156, 1168, 1197, 1204, 1213, 1221, 1237
 1239, 1249, 1263, 1266, 1307, 1310, 1311, 1325, 1330, 1331, 1368, 1376, 1396, 1401, 1402, 1436
 1465, 1468, 1472, 1481, 1488, 1489, 1506, 1532, 1533, 1560, 1572, 1586, 1589, 1596, 1602, 1603
 1620, 1630, 1631, 1632, 1633, 1642, 1739, 1741, 1748, 1749, 1750, 1751, 1752, 1753, 1754, 1755
 1757, 1758, 1759, 1760, 1761, 1762, 1763, 1764, 1765, 1766, 1767, 1768, 1769, 1770, 1771, 1772
 1773, 1775, 1776, 1777, 1778, 1779, 1780, 1781, 1782, 1783, 1784, 1785, 1786, 1787, 1788, 1789
 1790, 1791, 1792, 1793, 1794, 1795, 1796, 1797, 1798, 1799, 1800, 1801, 1802, 1803, 1804, 1805
 1806, 1807, 1808, 1809, 1810, 1811, 1812, 1813, 1814, 1815, 1816, 1817, 1818, 1819, 1820, 1821
 1822, 1823, 1824, 1825, 1826, 1827, 1828, 1829, 1830, 1831, 1833, 1834, 1835, 1836, 1837, 1838
 1839, 1840, 1841, 1842, 1843, 1844, 1845, 1846, 1847, 1848, 1849, 1850, 1851, 1852, 1853, 1854
** ... 27 like lines cut
*Nset, nset=Set-3, instance=plate-1, generate
    6,  1098,     6
*Elset, elset=Set-3, instance=plate-1, generate
   5,  600,    5
*Nset, nset=Set-4, instance=plate-1, generate
    6,  1098,     6
*Elset, elset=Set-4, instance=plate-1, generate
   5,  600,    5
*Nset, nset=Set-5, instance=plate-1, generate
    6,  1098,     6
*Elset, elset=Set-5, instance=plate-1, generate
   5,  600,    5
*Nset, nset=Set-6, instance=plate-1, generate
    6,  1098,     6
*Elset, elset=Set-6, instance=plate-1, generate
   5,  600,    5
*Nset, nset=Set-7, instance=plate-1, generate
    6,  1098,     6
*Elset, elset=Set-7, instance=plate-1, generate
   5,  600,    5
*Nset, nset=Set-8, instance=plate-1, generate
    6,  1098,     6
*Elset, elset=Set-8, instance=plate-1, generate
   5,  600,    5
*Nset, nset=Set-9, instance=plate-1, generate
    6,  1098,     6
*Elset, elset=Set-9, instance=plate-1, generate
   5,  600,    5
*Nset, nset=Set-10, instance=layer-1
     1,     2,     3,     4,     5,     6,     7,     8,     9,    10,    11,    12,    13,    14,    15,    16
    17,    18,    19,    20,    21,    22,    23,    24,    25,    26,    27,    28,    29,    30,    31,    32
    33,    34,    35,    36,    37,    38,    39,    40,    41,    42,    43,    44,    45,    46,    47,    48
    49,    50,    51,    52,    53,    54,    55,    56,    57,    58,    59,    60,    61,    62,    63,    64
    65,    66,    67,    68,    69,    70,    71,    72,    73,    74,    75,    76,    77,    78,    79,    80
    81,    82,    83,    84,    85,    86,    87,    88,    89,    90,    91,    92,    93,    94,    95,    96
    97,    98,    99,   100,   101,   102,   103,   104,   105,   106,   107,   108,   109,   110,   111,   112
   113,   114,   115,   116,   117,   118,   119,   120,   121,   122,   123,   124,   125,   126,  1070,  1071
  1072,  1073,  1074,  1075,  1076,  1077,  1078,  1079,  1080,  1081,  1082,  1083,  1084,  1085,  1086,  1087
  1088,  1089,  1090,  1091,  1092,  1093,  1094,  1095,  1096,  1097,  1098,  1099,  1100,  1101,  1102,  1103
  1104,  1105,  1106,  1107,  1108,  1109,  1110,  1111,  1112,  1113,  1114,  1115,  1116,  1117,  1118,  1119
  1120,  1121,  1122,  1123,  1124,  1125,  1126,  1127,  1128,  1129,  1130,  1131,  1132,  1133,  1134,  1135
  1136,  1137,  1138,  1139,  1140,  1141,  1142,  1143,  1144,  1145,  1146,  1147,  1148,  1149,  1150,  1151
  1152,  1153,  1154,  1155,  1156,  1157,  1158,  1159,  1160,  1161,  1162,  1163,  1164,  1165,  1166,  1167
  1168,  1169,  1170,  1171,  1172,  1173,  1174,  1175,  1176,  1177,  1178,  1179,  1180,  1181,  1182,  1183
  1184,  1185,  1186,  1187,  1188,  1189,  1190,  1191,  1192,  1193,  1194,  1195,  1196,  1197,  1198,  1199
  1200,  1201,  1202,  1203,  1204,  1205,  1206,  1207,  1208,  1209,  1210,  1211,  1212,  1213,  1214,  1215
  1216,  1217,  1218,  1219,  1220,  1221,  1222,  1223,  1224,  1225,  1226,  1227,  1228,  1229,  1230,  1231
  1232,  1233,  1234,  1235,  1236,  1237,  1238,  1239,  1240,  1241,  1242,  1243,  1244,  1245,  1246,  1247
  1248,  1249,  1250,  1251,  1252,  1253,  1254,  1255,  1256,  1257,  1258,  1259,  1260,  1261,  1262,  1263
** ... 51 like lines cut
*Elset, elset=Set-10, instance=layer-1
   20,   22,   23,   25,   27,   28,   29,   35,   36,   45,   46,   47,   52,   54,   56,   58
   59,   85,   91,   92,   93,   94,   96,   97,   99,  109,  111,  124,  138,  142,  143,  155
  158,  175,  176,  177,  190,  191,  201,  203,  204,  219,  220,  222,  224,  225,  226,  237
  238,  241,  243,  247,  248,  254,  260,  264,  266,  267,  268,  269,  270,  272,  280,  281
  282,  284,  289,  290,  294,  298,  299,  305,  306,  312,  318,  326,  328,  329,  343,  344
  357,  359,  360,  362,  363,  364,  365,  376,  377,  378,  379,  380,  382,  383,  385,  388
  400,  401,  402,  403,  415,  416,  417,  427,  431,  439,  441,  443,  445,  450,  451,  461
  462,  463,  464,  465,  469,  473,  484,  485,  487,  497,  498,  499,  504,  510,  511,  514
  517,  518,  519,  530,  532,  546,  548,  553,  556,  558,  559,  560,  571,  572,  573,  594
  595,  596,  643,  679,  725,  733,  745,  746,  775,  790,  791,  825,  908, 1018, 1052, 1053
 1055, 1087, 1088, 1103, 1116, 1117, 1134, 1150, 1154, 1156, 1168, 1197, 1204, 1213, 1221, 1237
 1239, 1249, 1263, 1266, 1307, 1310, 1311, 1325, 1330, 1331, 1368, 1376, 1396, 1401, 1402, 1436
 1465, 1468, 1472, 1481, 1488, 1489, 1506, 1532, 1533, 1560, 1572, 1586, 1589, 1596, 1602, 1603
 1620, 1630, 1631, 1632, 1633, 1642, 1739, 1741, 1748, 1749, 1750, 1751, 1752, 1753, 1754, 1755
 1757, 1758, 1759, 1760, 1761, 1762, 1763, 1764, 1765, 1766, 1767, 1768, 1769, 1770, 1771, 1772
 1773, 1775, 1776, 1777, 1778, 1779, 1780, 1781, 1782, 1783, 1784, 1785, 1786, 1787, 1788, 1789
 1790, 1791, 1792, 1793, 1794, 1795, 1796, 1797, 1798, 1799, 1800, 1801, 1802, 1803, 1804, 1805
 1806, 1807, 1808, 1809, 1810, 1811, 1812, 1813, 1814, 1815, 1816, 1817, 1818, 1819, 1820, 1821
 1822, 1823, 1824, 1825, 1826, 1827, 1828, 1829, 1830, 1831, 1833, 1834, 1835, 1836, 1837, 1838
 1839, 1840, 1841, 1842, 1843, 1844, 1845, 1846, 1847, 1848, 1849, 1850, 1851, 1852, 1853, 1854
** ... 27 like lines cut
*Nset, nset=Set-11, instance=plate-1, generate
    6,  1098,     6
*Elset, elset=Set-11, instance=plate-1, generate
   5,  600,    5
*Nset, nset=Set-12, instance=plate-1, generate
    6,  1098,     6
*Elset, elset=Set-12, instance=plate-1, generate
   5,  600,    5
*Nset, nset=m_Set-1, instance=layer-1
 130,
*Surface, type=NODE, name=m_Set-1_CNS_, internal
m_Set-1, 1.
*Surface, type=NODE, name=plate-1_all_nodes_CNS_, internal
plate-1.all_nodes, 1.
** Constraint: Constraint-1
*Tie, name=Constraint-1, adjust=yes
plate-1_all_nodes_CNS_, m_Set-1_CNS_
*Elset, elset=__interaction_general_gcs0_8_S3, internal, instance=layer-1
   16,  196,  197,  333,  336,  396,  409,  411,  421,  568,  569,  577,  616,  680,  692,  694
  697,  698,  716,  719,  750,  804,  811,  812,  817,  851,  859,  861,  863,  895,  921,  966
  972,  973,  976,  982, 1023, 1339, 1343, 1373, 1374, 1529, 1553, 1576, 1677, 1693, 1714, 1875
 1878, 1880, 1881, 1883, 1884, 1886, 1903, 1904, 1905, 1907, 1908, 1909, 1912, 1913, 1915, 1918
 1920, 1921, 1923, 1942, 1943, 1944, 1945, 1947, 1948, 1950, 1951, 1953, 1958, 1960, 1961, 1963
 1965, 2027, 2028, 2029, 2032, 2099, 2104, 2141, 2147, 2156, 2167, 2222, 2234, 2238, 2251, 2263
 2294, 2303, 4820, 5000, 5001, 5137, 5140, 5200, 5213, 5215, 5225, 5372, 5373, 5381, 5420, 5484
 5496, 5498, 5501, 5502, 5520, 5523, 5554, 5608, 5615, 5616, 5621, 5655, 5663, 5665, 5667, 5699
 5725, 5770, 5776, 5777, 5780, 5786, 5827, 6143, 6147, 6177, 6178, 6333, 6357, 6380, 6481, 6497
 6518, 6679, 6682, 6684, 6685, 6687, 6688, 6690, 6707, 6708, 6709, 6711, 6712, 6713, 6716, 6717
 6719, 6722, 6724, 6725, 6727, 6746, 6747, 6748, 6749, 6751, 6752, 6754, 6755, 6757, 6762, 6764
 6765, 6767, 6769, 6831, 6832, 6833, 6836, 6903, 6908, 6945, 6951, 6960, 6971, 7026, 7038, 7042
 7055, 7067, 7098, 7107
*Elset, elset=__interaction_general_gcs0_8_S5, internal, instance=layer-1
   18,  207,  209,  304,  324,  334,  335,  393,  394,  570,  578,  587,  617,  620,  621,  630
  695,  696,  699,  711,  714,  715,  717,  718,  726,  816,  821,  826,  831,  832,  833,  860
  897,  953,  975,  977,  981, 1025, 1674, 1675, 1678, 1694, 1702, 1737, 1747, 1877, 1879, 1882
 1885, 1906, 1910, 1911, 1914, 1916, 1917, 1919, 1922, 1946, 1949, 1954, 1957, 1959, 1962, 2030
 2033, 2034, 2080, 2120, 2128, 2130, 2134, 2140, 2240, 2245, 2264, 2284, 2285, 2295, 4822, 5011
 5013, 5108, 5128, 5138, 5139, 5197, 5198, 5374, 5382, 5391, 5421, 5424, 5425, 5434, 5499, 5500
 5503, 5515, 5518, 5519, 5521, 5522, 5530, 5620, 5625, 5630, 5635, 5636, 5637, 5664, 5701, 5757
 5779, 5781, 5785, 5829, 6478, 6479, 6482, 6498, 6506, 6541, 6551, 6681, 6683, 6686, 6689, 6710
 6714, 6715, 6718, 6720, 6721, 6723, 6726, 6750, 6753, 6758, 6761, 6763, 6766, 6834, 6837, 6838
 6884, 6924, 6932, 6934, 6938, 6944, 7044, 7049, 7068, 7088, 7089, 7099
*Elset, elset=__interaction_general_gcs0_8_S6, internal, instance=layer-1
   65,  117,  118,  130,  131,  132,  133,  134,  166,  168,  170,  352,  353,  588,  623,  636
  646,  660,  667,  670,  685,  741,  748,  749,  762,  770,  779,  780,  803,  836,  852,  870
  871,  874,  884,  890,  892,  893,  920,  922,  925,  926,  929,  941,  945,  954,  961,  984
  995, 1004, 1006, 1009, 1047, 1096, 1119, 1148, 1165, 1234, 1271, 1320, 1336, 1337, 1424, 1475
 1600, 1660, 1887, 1888, 1890, 1891, 1897, 1898, 1924, 1925, 1926, 1927, 1930, 1933, 1935, 1938
 1941, 1964, 1966, 1969, 1970, 1971, 1972, 1974, 1975, 1979, 1985, 1986, 1990, 1992, 2000, 2002
 2004, 2005, 2007, 2008, 2010, 2012, 2014, 2017, 2019, 2022, 2024, 2026, 4869, 4921, 4922, 4934
 4935, 4936, 4937, 4938, 4970, 4972, 4974, 5156, 5157, 5392, 5427, 5440, 5450, 5464, 5471, 5474
 5489, 5545, 5552, 5553, 5566, 5574, 5583, 5584, 5607, 5640, 5656, 5674, 5675, 5678, 5688, 5694
 5696, 5697, 5724, 5726, 5729, 5730, 5733, 5745, 5749, 5758, 5765, 5788, 5799, 5808, 5810, 5813
 5851, 5900, 5923, 5952, 5969, 6038, 6075, 6124, 6140, 6141, 6228, 6279, 6404, 6464, 6691, 6692
 6694, 6695, 6701, 6702, 6728, 6729, 6730, 6731, 6734, 6737, 6739, 6742, 6745, 6768, 6770, 6773
 6774, 6775, 6776, 6778, 6779, 6783, 6789, 6790, 6794, 6796, 6804, 6806, 6808, 6809, 6811, 6812
 6814, 6816, 6818, 6821, 6823, 6826, 6828, 6830
*Elset, elset=__interaction_general_gcs0_8_S4, internal, instance=layer-1
   76,   77,  119,  147,  149,  150,  167,  169,  182,  354,  492,  493,  494,  537,  538,  629
  631,  648,  649,  662,  666,  668,  669,  686,  738,  739,  747,  760,  768,  769,  776,  778
  781,  782,  783,  797,  798,  802,  866,  876,  894,  896,  899,  912,  913,  918,  923,  924
  937,  948,  956,  957,  960,  963,  964,  965,  996, 1005, 1010, 1011, 1012, 1031, 1071, 1091
 1093, 1099, 1102, 1114, 1126, 1201, 1236, 1273, 1280, 1291, 1319, 1434, 1476, 1580, 1614, 1662
 1738, 1743, 1746, 1889, 1892, 1893, 1895, 1896, 1899, 1900, 1901, 1902, 1928, 1929, 1931, 1932
 1934, 1936, 1937, 1939, 1940, 1955, 1956, 1967, 1968, 1973, 1976, 1977, 1978, 1980, 1981, 1982
 1983, 1984, 1987, 1988, 1989, 1991, 1994, 1996, 1997, 1998, 1999, 2001, 2003, 2006, 2009, 2011
 2013, 2015, 2016, 2018, 2020, 2021, 2023, 2025, 2050, 2051, 2056, 2058, 2062, 2065, 2067, 2069
 2073, 2106, 2113, 2116, 2125, 2149, 2154, 2161, 2194, 2201, 2227, 2283, 4880, 4881, 4923, 4951
 4953, 4954, 4971, 4973, 4986, 5158, 5296, 5297, 5298, 5341, 5342, 5433, 5435, 5452, 5453, 5466
 5470, 5472, 5473, 5490, 5542, 5543, 5551, 5564, 5572, 5573, 5580, 5582, 5585, 5586, 5587, 5601
 5602, 5606, 5670, 5680, 5698, 5700, 5703, 5716, 5717, 5722, 5727, 5728, 5741, 5752, 5760, 5761
 5764, 5767, 5768, 5769, 5800, 5809, 5814, 5815, 5816, 5835, 5875, 5895, 5897, 5903, 5906, 5918
 5930, 6005, 6040, 6077, 6084, 6095, 6123, 6238, 6280, 6384, 6418, 6466, 6542, 6547, 6550, 6693
 6696, 6697, 6699, 6700, 6703, 6704, 6705, 6706, 6732, 6733, 6735, 6736, 6738, 6740, 6741, 6743
 6744, 6759, 6760, 6771, 6772, 6777, 6780, 6781, 6782, 6784, 6785, 6786, 6787, 6788, 6791, 6792
 6793, 6795, 6798, 6800, 6801, 6802, 6803, 6805, 6807, 6810, 6813, 6815, 6817, 6819, 6820, 6822
 6824, 6825, 6827, 6829, 6854, 6855, 6860, 6862, 6866, 6869, 6871, 6873, 6877, 6910, 6917, 6920
 6929, 6953, 6958, 6965, 6998, 7005, 7031, 7087
*Surface, type=ELEMENT, name=_interaction_general_gcs0_8, internal
__interaction_general_gcs0_8_S3, S3
__interaction_general_gcs0_8_S5, S5
__interaction_general_gcs0_8_S6, S6
__interaction_general_gcs0_8_S4, S4
*Elset, elset=__interaction_general_gcs0_9_S3, internal, instance=layer-1
   20,   22,   23,   29,   54,   85,   99,  385,  388,  400,  401,  403,  415,  416,  417,  439
  461,  462,  465,  473,  511,  517,  532,  546,  548,  553,  643,  679,  733, 1465, 1532, 1596
 1603, 1630, 1789, 1790, 1792, 1793, 1807, 1809, 1811, 1820, 1821, 1822, 1824, 1825, 1826, 1828
 1829, 1831, 1833, 1835, 1836, 1837, 1838, 1839, 1840, 1845, 1846, 1847, 1856, 1868, 2307, 2396
 2401, 2403, 2412, 2416, 2417, 2434, 2465, 2470, 2487, 2514, 4824, 4826, 4827, 4833, 4858, 4889
 4903, 5189, 5192, 5204, 5205, 5207, 5219, 5220, 5221, 5243, 5265, 5266, 5269, 5277, 5315, 5321
 5336, 5350, 5352, 5357, 5447, 5483, 5537, 6269, 6336, 6400, 6407, 6434, 6593, 6594, 6596, 6597
 6611, 6613, 6615, 6624, 6625, 6626, 6628, 6629, 6630, 6632, 6633, 6635, 6637, 6639, 6640, 6641
 6642, 6643, 6644, 6649, 6650, 6651, 6660, 6672, 7111, 7200, 7205, 7207, 7216, 7220, 7221, 7238
 7269, 7274, 7291, 7318
*Elset, elset=__interaction_general_gcs0_9_S5, internal, instance=layer-1
   25,   27,   28,   47,   52,   97,  111,  383,  402,  427,  441,  443,  463,  464,  469,  484
  485,  487,  497,  498,  499,  504,  510,  514,  518,  519,  530,  556,  558,  559,  560,  725
 1087, 1134, 1150, 1168, 1468, 1472, 1481, 1506, 1533, 1560, 1572, 1586, 1589, 1602, 1631, 1633
 1788, 1791, 1806, 1808, 1810, 1823, 1827, 1830, 1834, 1844, 1848, 2324, 2325, 2384, 2410, 2430
 2446, 2455, 2459, 2508, 2525, 2526, 4829, 4831, 4832, 4851, 4856, 4901, 4915, 5187, 5206, 5231
 5245, 5247, 5267, 5268, 5273, 5288, 5289, 5291, 5301, 5302, 5303, 5308, 5314, 5318, 5322, 5323
 5334, 5360, 5362, 5363, 5364, 5529, 5891, 5938, 5954, 5972, 6272, 6276, 6285, 6310, 6337, 6364
 6376, 6390, 6393, 6406, 6435, 6437, 6592, 6595, 6610, 6612, 6614, 6627, 6631, 6634, 6638, 6648
 6652, 7128, 7129, 7188, 7214, 7234, 7250, 7259, 7263, 7312, 7329, 7330
*Elset, elset=__interaction_general_gcs0_9_S4, internal, instance=layer-1
   35,   92,   93,   94,  138,  143,  155,  176,  177,  190,  191,  204,  225,  243,  267,  272
  280,  281,  284,  289,  290,  312,  328,  343,  363,  377,  379,  431,  451,  572,  573,  596
  746,  775,  825, 1018, 1088, 1103, 1116, 1154, 1204, 1239, 1249, 1307, 1436, 1488, 1489, 1632
 1739, 1741, 1748, 1750, 1751, 1753, 1754, 1757, 1758, 1759, 1760, 1762, 1765, 1766, 1768, 1769
 1771, 1772, 1775, 1778, 1779, 1781, 1783, 1784, 1785, 1787, 1794, 1797, 1799, 1800, 1802, 1804
 1805, 1814, 1817, 1818, 1841, 1843, 1849, 1851, 1853, 1858, 1861, 1862, 1865, 1866, 2308, 2310
 2315, 2323, 2331, 2332, 2336, 2338, 2349, 2361, 2377, 2415, 2450, 2467, 2480, 2484, 4586, 4587
 4839, 4896, 4897, 4898, 4942, 4947, 4959, 4980, 4981, 4994, 4995, 5008, 5029, 5047, 5071, 5076
 5084, 5085, 5088, 5093, 5094, 5116, 5132, 5147, 5167, 5181, 5183, 5235, 5255, 5376, 5377, 5400
 5550, 5579, 5629, 5822, 5892, 5907, 5920, 5958, 6008, 6043, 6053, 6111, 6240, 6292, 6293, 6436
 6543, 6545, 6552, 6554, 6555, 6557, 6558, 6561, 6562, 6563, 6564, 6566, 6569, 6570, 6572, 6573
 6575, 6576, 6579, 6582, 6583, 6585, 6587, 6588, 6589, 6591, 6598, 6601, 6603, 6604, 6606, 6608
 6609, 6618, 6621, 6622, 6645, 6647, 6653, 6655, 6657, 6662, 6665, 6666, 6669, 6670, 7112, 7114
 7119, 7127, 7135, 7136, 7140, 7142, 7153, 7165, 7181, 7219, 7254, 7271, 7284, 7288, 9390, 9391
*Elset, elset=__interaction_general_gcs0_9_S6, internal, instance=layer-1
   36,   45,   46,   56,   58,   59,   91,   96,  109,  124,  142,  158,  175,  201,  203,  219
  220,  222,  224,  226,  237,  238,  241,  247,  248,  254,  260,  264,  266,  268,  269,  270
  282,  294,  298,  299,  305,  306,  318,  326,  329,  344,  357,  359,  360,  362,  364,  365
  376,  378,  380,  382,  445,  450,  571,  594,  595,  745,  790,  791,  908, 1052, 1053, 1055
 1117, 1156, 1197, 1213, 1221, 1237, 1263, 1266, 1310, 1311, 1325, 1330, 1331, 1368, 1376, 1396
 1401, 1402, 1620, 1642, 1749, 1752, 1755, 1761, 1763, 1764, 1767, 1770, 1773, 1776, 1777, 1780
 1782, 1786, 1795, 1796, 1798, 1801, 1803, 1812, 1813, 1815, 1816, 1819, 1842, 1850, 1852, 1854
 1855, 1857, 1859, 1860, 1863, 1864, 1867, 2405, 4840, 4849, 4850, 4860, 4862, 4863, 4895, 4900
 4913, 4928, 4946, 4962, 4979, 5005, 5007, 5023, 5024, 5026, 5028, 5030, 5041, 5042, 5045, 5051
 5052, 5058, 5064, 5068, 5070, 5072, 5073, 5074, 5086, 5098, 5102, 5103, 5109, 5110, 5122, 5130
 5133, 5148, 5161, 5163, 5164, 5166, 5168, 5169, 5180, 5182, 5184, 5186, 5249, 5254, 5375, 5398
 5399, 5549, 5594, 5595, 5712, 5856, 5857, 5859, 5921, 5960, 6001, 6017, 6025, 6041, 6067, 6070
 6114, 6115, 6129, 6134, 6135, 6172, 6180, 6200, 6205, 6206, 6424, 6446, 6553, 6556, 6559, 6565
 6567, 6568, 6571, 6574, 6577, 6580, 6581, 6584, 6586, 6590, 6599, 6600, 6602, 6605, 6607, 6616
 6617, 6619, 6620, 6623, 6646, 6654, 6656, 6658, 6659, 6661, 6663, 6664, 6667, 6668, 6671, 7209
*Surface, type=ELEMENT, name=_interaction_general_gcs0_9, internal
__interaction_general_gcs0_9_S3, S3
__interaction_general_gcs0_9_S5, S5
__interaction_general_gcs0_9_S4, S4
__interaction_general_gcs0_9_S6, S6
*End Assembly
** 
** MATERIALS
** 
*Material, name=elastomer
*Density
1175.,
*Hyperelastic, neo hooke
 1.2e+06,0.
*Material, name=steel
*Density
7850.,
*Elastic
 2.1e+11, 0.3
** 
** INTERACTION PROPERTIES
** 
*Surface Interaction, name=frict
1.,
*Friction, slip tolerance=0.005
 0.3,
** 
** BOUNDARY CONDITIONS
** 
** Name: fix all nodes Type: Symmetry/Antisymmetry/Encastre
*Boundary
plate-1.all_nodes, XSYMM
** Name: fix inner layer Type: Symmetry/Antisymmetry/Encastre
*Boundary
Set-10, ENCASTRE
** 
** INTERACTIONS
** 
** Interaction: interaction_general
*Contact
*Contact Inclusions, ALL EXTERIOR
*Contact Property Assignment
 ,  , frict
*Surface Property Assignment, property=GEOMETRIC CORRECTION
_interaction_general_gcs0_8, Circumferential, 0.03, 0.1125, 0.,  0.03, 0.1125, 1.
_interaction_general_gcs0_9, Circumferential, 0.03, 0.1125, 0.,  0.03, 0.1125, 1.
** ----------------------------------------------------------------
** 
** STEP: step1000
** 
*Step, name=step1000, nlgeom=YES, inc=10
*Static
0.01, 0.1, 1e-06, 0.01
** 
** BOUNDARY CONDITIONS
** 
** Name: step1000 Type: Displacement/Rotation
*Boundary
Set-11, 1, 1
Set-11, 2, 2, 0.000273
Set-11, 3, 3
Set-11, 4, 4
Set-11, 5, 5
Set-11, 6, 6
** 
** OUTPUT REQUESTS
** 
*Restart, write, frequency=0
** 
** FIELD OUTPUT: F-Output-1
** 
*Output, field
*Node Output
CF, RF, U
*Element Output, directions=YES
LE, PE, PEEQ, PEMAG, S
*Contact Output
CDISP, CFORCE, CSTRESS
** 
** HISTORY OUTPUT: H-Output-4
** 
*Output, history
*Contact Output
CAREA, CFT1, CFT2, CFT3, CFTM
** 
** HISTORY OUTPUT: H-Output-3
** 
*Contact Output, nset=layer-1."contact surface"
CAREA, CFT1, CFT2, CFT3, CFTM
** 
** HISTORY OUTPUT: H-Output-1
** 
*Contact Output, nset=plate-1.contact_surface
CAREA, CFT1, CFT2, CFT3, CFTM
** 
** HISTORY OUTPUT: H-Output-2
** 
*Node Output, nset=plate-1.one_node
U2, 
*End Step
** ----------------------------------------------------------------
** 
** STEP: step1250
** 
*Step, name=step1250, nlgeom=YES, inc=10
*Static
0.01, 0.1, 1e-06, 0.01
** 
** BOUNDARY CONDITIONS
** 
** Name: fix all nodes Type: Symmetry/Antisymmetry/Encastre
*Boundary, op=NEW
plate-1.all_nodes, XSYMM
** Name: fix inner layer Type: Symmetry/Antisymmetry/Encastre
*Boundary, op=NEW
Set-10, ENCASTRE
** Name: step1000 Type: Displacement/Rotation
*Boundary, op=NEW
** Name: step1250 Type: Displacement/Rotation
*Boundary, op=NEW
Set-12, 1, 1
Set-12, 2, 2, 0.000308
Set-12, 3, 3
Set-12, 4, 4
Set-12, 5, 5
Set-12, 6, 6
** 
** OUTPUT REQUESTS
** 
*Restart, write, frequency=0
** 
** FIELD OUTPUT: F-Output-1
** 
*Output, field
*Node Output
CF, RF, U
*Element Output, directions=YES
LE, PE, PEEQ, PEMAG, S
*Contact Output
CDISP, CFORCE, CSTRESS
** 
** HISTORY OUTPUT: H-Output-4
** 
*Output, history
*Contact Output
CAREA, CFT1, CFT2, CFT3, CFTM
** 
** HISTORY OUTPUT: H-Output-3
** 
*Contact Output, nset=layer-1."contact surface"
CAREA, CFT1, CFT2, CFT3, CFTM
** 
** HISTORY OUTPUT: H-Output-1
** 
*Contact Output, nset=plate-1.contact_surface
CAREA, CFT1, CFT2, CFT3, CFTM
** 
** HISTORY OUTPUT: H-Output-2
** 
*Node Output, nset=plate-1.one_node
U2, 
*End Step
** ----------------------------------------------------------------
** 
** STEP: step1500
** 
*Step, name=step1500, nlgeom=YES, inc=10
*Static
0.01, 0.1, 1e-06, 0.01
** 
** BOUNDARY CONDITIONS
** 
** Name: fix all nodes Type: Symmetry/Antisymmetry/Encastre
*Boundary, op=NEW
plate-1.all_nodes, XSYMM
** Name: fix inner layer Type: Symmetry/Antisymmetry/Encastre
*Boundary, op=NEW
Set-10, ENCASTRE
** Name: step1250 Type: Displacement/Rotation
*Boundary, op=NEW
** Name: step1500 Type: Displacement/Rotation
*Boundary, op=NEW
Set-5, 1, 1
Set-5, 2, 2, 0.000343
Set-5, 3, 3
Set-5, 4, 4
Set-5, 5, 5
Set-5, 6, 6
** 
** OUTPUT REQUESTS
** 
*Restart, write, frequency=0
** 
** FIELD OUTPUT: F-Output-1
** 
*Output, field
*Node Output
CF, RF, U
*Element Output, directions=YES
LE, PE, PEEQ, PEMAG, S
*Contact Output
CDISP, CFORCE, CSTRESS
** 
** HISTORY OUTPUT: H-Output-4
** 
*Output, history
*Contact Output
CAREA, CFT1, CFT2, CFT3, CFTM
** 
** HISTORY OUTPUT: H-Output-3
** 
*Contact Output, nset=layer-1."contact surface"
CAREA, CFT1, CFT2, CFT3, CFTM
** 
** HISTORY OUTPUT: H-Output-1
** 
*Contact Output, nset=plate-1.contact_surface
CAREA, CFT1, CFT2, CFT3, CFTM
** 
** HISTORY OUTPUT: H-Output-2
** 
*Node Output, nset=plate-1.one_node
U2, 
*End Step
** ----------------------------------------------------------------
** 
** STEP: step1750
** 
*Step, name=step1750, nlgeom=YES, inc=10
*Static
0.01, 0.1, 1e-06, 0.01
** 
** BOUNDARY CONDITIONS
** 
** Name: fix all nodes Type: Symmetry/Antisymmetry/Encastre
*Boundary, op=NEW
plate-1.all_nodes, XSYMM
** Name: fix inner layer Type: Symmetry/Antisymmetry/Encastre
*Boundary, op=NEW
Set-10, ENCASTRE
** Name: step1500 Type: Displacement/Rotation
*Boundary, op=NEW
** Name: step1750 Type: Displacement/Rotation
*Boundary, op=NEW
Set-6, 1, 1
Set-6, 2, 2, 0.000392
Set-6, 3, 3
Set-6, 4, 4
Set-6, 5, 5
Set-6, 6, 6
** 
** OUTPUT REQUESTS
** 
*Restart, write, frequency=0
** 
** FIELD OUTPUT: F-Output-1
** 
*Output, field
*Node Output
CF, RF, U
*Element Output, directions=YES
LE, PE, PEEQ, PEMAG, S
*Contact Output
CDISP, CFORCE, CSTRESS
** 
** HISTORY OUTPUT: H-Output-4
** 
*Output, history
*Contact Output
CAREA, CFT1, CFT2, CFT3, CFTM
** 
** HISTORY OUTPUT: H-Output-3
** 
*Contact Output, nset=layer-1."contact surface"
CAREA, CFT1, CFT2, CFT3, CFTM
** 
** HISTORY OUTPUT: H-Output-1
** 
*Contact Output, nset=plate-1.contact_surface
CAREA, CFT1, CFT2, CFT3, CFTM
** 
** HISTORY OUTPUT: H-Output-2
** 
*Node Output, nset=plate-1.one_node
U2, 
*End Step
** ----------------------------------------------------------------
** 
** STEP: step2000
** 
*Step, name=step2000, nlgeom=YES, inc=10
*Static
0.01, 0.1, 1e-06, 0.01
** 
** BOUNDARY CONDITIONS
** 
** Name: fix all nodes Type: Symmetry/Antisymmetry/Encastre
*Boundary, op=NEW
plate-1.all_nodes, XSYMM
** Name: fix inner layer Type: Symmetry/Antisymmetry/Encastre
*Boundary, op=NEW
Set-10, ENCASTRE
** Name: step1750 Type: Displacement/Rotation
*Boundary, op=NEW
** Name: step2000 Type: Displacement/Rotation
*Boundary, op=NEW
Set-7, 1, 1
Set-7, 2, 2, 0.000423
Set-7, 3, 3
Set-7, 4, 4
Set-7, 5, 5
Set-7, 6, 6
** 
** OUTPUT REQUESTS
** 
*Restart, write, frequency=0
** 
** FIELD OUTPUT: F-Output-1
** 
*Output, field
*Node Output
CF, RF, U
*Element Output, directions=YES
LE, PE, PEEQ, PEMAG, S
*Contact Output
CDISP, CFORCE, CSTRESS
** 
** HISTORY OUTPUT: H-Output-4
** 
*Output, history
*Contact Output
CAREA, CFT1, CFT2, CFT3, CFTM
** 
** HISTORY OUTPUT: H-Output-3
** 
*Contact Output, nset=layer-1."contact surface"
CAREA, CFT1, CFT2, CFT3, CFTM
** 
** HISTORY OUTPUT: H-Output-1
** 
*Contact Output, nset=plate-1.contact_surface
CAREA, CFT1, CFT2, CFT3, CFTM
** 
** HISTORY OUTPUT: H-Output-2
** 
*Node Output, nset=plate-1.one_node
U2, 
*End Step
** ----------------------------------------------------------------
** 
** STEP: step3000
** 
*Step, name=step3000, nlgeom=YES, inc=10
*Static
0.01, 0.1, 1e-06, 0.01
** 
** BOUNDARY CONDITIONS
** 
** Name: fix all nodes Type: Symmetry/Antisymmetry/Encastre
*Boundary, op=NEW
plate-1.all_nodes, XSYMM
** Name: fix inner layer Type: Symmetry/Antisymmetry/Encastre
*Boundary, op=NEW
Set-10, ENCASTRE
** Name: step2000 Type: Displacement/Rotation
*Boundary, op=NEW
** Name: step3000 Type: Displacement/Rotation
*Boundary, op=NEW
Set-8, 1, 1
Set-8, 2, 2, 0.000513
Set-8, 3, 3
Set-8, 4, 4
Set-8, 5, 5
Set-8, 6, 6
** 
** OUTPUT REQUESTS
** 
*Restart, write, frequency=0
** 
** FIELD OUTPUT: F-Output-1
** 
*Output, field
*Node Output
CF, RF, U
*Element Output, directions=YES
LE, PE, PEEQ, PEMAG, S
*Contact Output
CDISP, CFORCE, CSTRESS
** 
** HISTORY OUTPUT: H-Output-4
** 
*Output, history
*Contact Output
CAREA, CFT1, CFT2, CFT3, CFTM
** 
** HISTORY OUTPUT: H-Output-3
** 
*Contact Output, nset=layer-1."contact surface"
CAREA, CFT1, CFT2, CFT3, CFTM
** 
** HISTORY OUTPUT: H-Output-1
** 
*Contact Output, nset=plate-1.contact_surface
CAREA, CFT1, CFT2, CFT3, CFTM
** 
** HISTORY OUTPUT: H-Output-2
** 
*Node Output, nset=plate-1.one_node
U2, 
*End Step
** ----------------------------------------------------------------
** 
** STEP: step4000
** 
*Step, name=step4000, nlgeom=YES, inc=10
*Static
0.01, 0.1, 1e-06, 0.01
** 
** BOUNDARY CONDITIONS
** 
** Name: fix all nodes Type: Symmetry/Antisymmetry/Encastre
*Boundary, op=NEW
plate-1.all_nodes, XSYMM
** Name: fix inner layer Type: Symmetry/Antisymmetry/Encastre
*Boundary, op=NEW
Set-10, ENCASTRE
** Name: step3000 Type: Displacement/Rotation
*Boundary, op=NEW
** Name: step4000 Type: Displacement/Rotation
*Boundary, op=NEW
Set-9, 1, 1
Set-9, 2, 2, 0.000637
Set-9, 3, 3
Set-9, 4, 4
Set-9, 5, 5
Set-9, 6, 6
** 
** OUTPUT REQUESTS
** 
*Restart, write, frequency=0
** 
** FIELD OUTPUT: F-Output-1
** 
*Output, field
*Node Output
CF, RF, U
*Element Output, directions=YES
LE, PE, PEEQ, PEMAG, S
*Contact Output
CDISP, CFORCE, CSTRESS
** 
** HISTORY OUTPUT: H-Output-4
** 
*Output, history
*Contact Output
CAREA, CFT1, CFT2, CFT3, CFTM
** 
** HISTORY OUTPUT: H-Output-3
** 
*Contact Output, nset=layer-1."contact surface"
CAREA, CFT1, CFT2, CFT3, CFTM
** 
** HISTORY OUTPUT: H-Output-1
** 
*Contact Output, nset=plate-1.contact_surface
CAREA, CFT1, CFT2, CFT3, CFTM
** 
** HISTORY OUTPUT: H-Output-2
** 
*Node Output, nset=plate-1.one_node
U2, 
*End Step
