*Heading
** Job name: 10802 Model name: Model-1
** Generated by: Abaqus/CAE 2022
*Preprint, echo=NO, model=NO, history=NO, contact=NO
**
*PARAMETER
C10=
** PARTS
**
*Part, name="layer 1/6"
*Node
      1,  0.023460947, -0.0668020025
      2,           0., -0.0668020025
      3,           0., -0.0708020031
      4, -0.023460947, -0.0668020025
      5,           0., -0.0599999987
      6, -0.0299999993, -0.0519615225
      7, -0.0354010016,  -0.06131633
      8, 0.0354010016,  -0.06131633
      9, 0.0299999993, -0.0519615225
     10, 0.0234109238, -0.0668020025
     11, 0.0233608987, -0.0668020025
     12, 0.0233108755, -0.0668020025
     13, 0.0232608523, -0.0668020025
     14, 0.0232108291, -0.0668020025
     15, 0.0231608059, -0.0668020025
     16, 0.0231107827, -0.0668020025
     17, 0.0230607595, -0.0668020025
     18, 0.0230107363, -0.0668020025
     19, 0.0229607131, -0.0668020025
     20, 0.0229106899, -0.0668020025
** ... 51744 like lines cut
*Element, type=CPS3
  1, 16113, 15587, 15822
  2, 12183,  4270, 11624
  3, 12320,  3842, 12319
  4,  7344,  6879,  7119
  5, 15478,  6538, 15329
  6,  9649,  8969,  8973
  7, 11954, 11953, 12692
  8, 12292, 12448,  4134
  9, 14246, 13933,  5223
 10,  9124,  3125,  2482
 11, 15990, 15674, 15648
 12, 10293, 10942,  3304
 13,  3485,  5393,  3263
 14, 11463,  3906,  3245
 15, 10155,  3070,  2892
 16,  4192,  4336,  4191
 17, 12430,  4109,  4156
 18, 13643, 14748, 13642
 19, 13828,  5545,  5803
 20, 13097,  4738, 12728
** ... 1872 like lines cut
*Element, type=CPS4R
  620,    10,    11,  1032,  1033
  621,  1024,  1025,  9118,  9119
  622,  1019,  1020,  9134,  3125
  623,  3000,  9135,  3128,  9125
  624,  1013,  1014,  9258,  3474
  625,  9260,  9259,  9929,  2719
  626,  1015,  1016,  2638,  2452
  627,  9122,    21,    22,  9123
  628,  9262,  9924,  1005,  1006
  629,  1000,  1001,  2640,  9264
  630,    54,    55,  3017,  9145
  631,  3177, 11962,  2694,  2909
  632,  9276,   985,   986,  9275
  633, 12363, 11557, 11556, 12045
  634, 11187,  4083, 11716,  3315
  635,    76,  3227,  9374,    75
  636,    76,    77,  9375,  3227
  637,    80,  2932,  9376,    79
  638,    84,  2569,  9378,    83
  639,  4291, 11942, 11802, 11335
** ... 50261 like lines cut
*Nset, nset=Set-1, generate
     1,  51764,      1
*Elset, elset=Set-1, generate
     1,  52173,      1
** Section: elastomer
*Solid Section, elset=Set-1, material=elastomer
,
*End Part
**  
*Part, name=plate
*Node
      1, 0.0399999991, 0.00625000009
      2, 0.0399999991, 0.0162499994
      3,           0., 0.0162499994
      4,           0., 0.00625000009
      5, 0.0799999982, 0.00625000009
      6, 0.0799999982, 0.0162499994
      7, 0.0399999991, 0.00724999979
      8, 0.0399999991, 0.00824999996
      9, 0.0399999991, 0.00925000012
     10, 0.0399999991, 0.0102500003
     11, 0.0399999991, 0.0112500004
     12, 0.0399999991, 0.0122499997
     13, 0.0399999991, 0.0132499998
     14, 0.0399999991,      0.01425
     15, 0.0399999991, 0.0152500002
     16, 0.0390000008, 0.0162499994
     17, 0.0379999988, 0.0162499994
     18, 0.0370000005, 0.0162499994
     19, 0.0359999985, 0.0162499994
     20, 0.0350000001, 0.0162499994
** ... 871 like lines cut
*Element, type=CPS4R
  1,   1,   7, 190, 102
  2,   7,   8, 191, 190
  3,   8,   9, 192, 191
  4,   9,  10, 193, 192
  5,  10,  11, 194, 193
  6,  11,  12, 195, 194
  7,  12,  13, 196, 195
  8,  13,  14, 197, 196
  9,  14,  15, 198, 197
 10,  15,   2,  16, 198
 11, 102, 190, 199, 101
 12, 190, 191, 200, 199
 13, 191, 192, 201, 200
 14, 192, 193, 202, 201
 15, 193, 194, 203, 202
 16, 194, 195, 204, 203
 17, 195, 196, 205, 204
 18, 196, 197, 206, 205
 19, 197, 198, 207, 206
 20, 198,  16,  17, 207
** ... 780 like lines cut
*Nset, nset=Set-1, generate
   1,  891,    1
*Elset, elset=Set-1, generate
   1,  800,    1
*Nset, nset=all_nodes, generate
   1,  891,    1
*Nset, nset=under_node
 1,
*Nset, nset=one_node
 2,
*Elset, elset="_top surrface_S2", internal, generate
  10,  400,   10
*Elset, elset="_top surrface_S4", internal, generate
 401,  791,   10
*Surface, type=ELEMENT, name="top surrface"
"_top surrface_S2", S2
"_top surrface_S4", S4
*Elset, elset="_bottom surface_S4", internal, generate
   1,  391,   10
*Elset, elset="_bottom surface_S2", internal, generate
 410,  800,   10
*Surface, type=ELEMENT, name="bottom surface"
"_bottom surface_S4", S4
"_bottom surface_S2", S2
** Section: steel
*Solid Section, elset=Set-1, material=steel
,
*End Part
**  
**
** ASSEMBLY
**
*Assembly, name=Assembly
**  
*Instance, name=plate-1, part=plate
*End Instance
**  
*Instance, name="layer 1/6-1", part="layer 1/6"
        0.04,     0.087052,           0.
*End Instance
**  
*Node
      1, 0.0399999991, 0.00625000009,           0.
*Node
      2,           0., 0.0162499994,           0.
*Nset, nset=Set-2, instance=plate-1
   1,   2,   3,   4,   5,   6,  16,  17,  18,  19,  20,  21,  22,  23,  24,  25
  26,  27,  28,  29,  30,  31,  32,  33,  34,  35,  36,  37,  38,  39,  40,  41
  42,  43,  44,  45,  46,  47,  48,  49,  50,  51,  52,  53,  54,  64,  65,  66
  67,  68,  69,  70,  71,  72,  73,  74,  75,  76,  77,  78,  79,  80,  81,  82
  83,  84,  85,  86,  87,  88,  89,  90,  91,  92,  93,  94,  95,  96,  97,  98
  99, 100, 101, 102, 103, 104, 105, 106, 107, 108, 109, 110, 111, 112, 113, 114
 115, 116, 117, 118, 119, 120, 121, 122, 123, 124, 125, 126, 127, 128, 129, 130
 131, 132, 133, 134, 135, 136, 137, 138, 139, 140, 141, 151, 152, 153, 154, 155
 156, 157, 158, 159, 160, 161, 162, 163, 164, 165, 166, 167, 168, 169, 170, 171
 172, 173, 174, 175, 176, 177, 178, 179, 180, 181, 182, 183, 184, 185, 186, 187
 188, 189
*Elset, elset=Set-2, instance=plate-1
   1,  10,  11,  20,  21,  30,  31,  40,  41,  50,  51,  60,  61,  70,  71,  80
  81,  90,  91, 100, 101, 110, 111, 120, 121, 130, 131, 140, 141, 150, 151, 160
 161, 170, 171, 180, 181, 190, 191, 200, 201, 210, 211, 220, 221, 230, 231, 240
 241, 250, 251, 260, 261, 270, 271, 280, 281, 290, 291, 300, 301, 310, 311, 320
 321, 330, 331, 340, 341, 350, 351, 360, 361, 370, 371, 380, 381, 390, 391, 400
 401, 410, 411, 420, 421, 430, 431, 440, 441, 450, 451, 460, 461, 470, 471, 480
 481, 490, 491, 500, 501, 510, 511, 520, 521, 530, 531, 540, 541, 550, 551, 560
 561, 570, 571, 580, 581, 590, 591, 600, 601, 610, 611, 620, 621, 630, 631, 640
 641, 650, 651, 660, 661, 670, 671, 680, 681, 690, 691, 700, 701, 710, 711, 720
 721, 730, 731, 740, 741, 750, 751, 760, 761, 770, 771, 780, 781, 790, 791, 800
*Nset, nset=Set-3, instance=plate-1
   2,   3,   6,  16,  17,  18,  19,  20,  21,  22,  23,  24,  25,  26,  27,  28
  29,  30,  31,  32,  33,  34,  35,  36,  37,  38,  39,  40,  41,  42,  43,  44
  45,  46,  47,  48,  49,  50,  51,  52,  53,  54, 151, 152, 153, 154, 155, 156
 157, 158, 159, 160, 161, 162, 163, 164, 165, 166, 167, 168, 169, 170, 171, 172
 173, 174, 175, 176, 177, 178, 179, 180, 181, 182, 183, 184, 185, 186, 187, 188
 189,
*Elset, elset=Set-3, instance=plate-1
  10,  20,  30,  40,  50,  60,  70,  80,  90, 100, 110, 120, 130, 140, 150, 160
 170, 180, 190, 200, 210, 220, 230, 240, 250, 260, 270, 280, 290, 300, 310, 320
 330, 340, 350, 360, 370, 380, 390, 400, 401, 411, 421, 431, 441, 451, 461, 471
 481, 491, 501, 511, 521, 531, 541, 551, 561, 571, 581, 591, 601, 611, 621, 631
 641, 651, 661, 671, 681, 691, 701, 711, 721, 731, 741, 751, 761, 771, 781, 791
*Nset, nset=Set-4, instance=plate-1
   2,   3,   6,  16,  17,  18,  19,  20,  21,  22,  23,  24,  25,  26,  27,  28
  29,  30,  31,  32,  33,  34,  35,  36,  37,  38,  39,  40,  41,  42,  43,  44
  45,  46,  47,  48,  49,  50,  51,  52,  53,  54, 151, 152, 153, 154, 155, 156
 157, 158, 159, 160, 161, 162, 163, 164, 165, 166, 167, 168, 169, 170, 171, 172
 173, 174, 175, 176, 177, 178, 179, 180, 181, 182, 183, 184, 185, 186, 187, 188
 189,
*Elset, elset=Set-4, instance=plate-1
  10,  20,  30,  40,  50,  60,  70,  80,  90, 100, 110, 120, 130, 140, 150, 160
 170, 180, 190, 200, 210, 220, 230, 240, 250, 260, 270, 280, 290, 300, 310, 320
 330, 340, 350, 360, 370, 380, 390, 400, 401, 411, 421, 431, 441, 451, 461, 471
 481, 491, 501, 511, 521, 531, 541, 551, 561, 571, 581, 591, 601, 611, 621, 631
 641, 651, 661, 671, 681, 691, 701, 711, 721, 731, 741, 751, 761, 771, 781, 791
*Nset, nset=Set-5, instance=plate-1
 1,
*Nset, nset=Set-6, instance=plate-1
 1,
*Nset, nset=Set-14, instance=plate-1
   2,   3,   6,  16,  17,  18,  19,  20,  21,  22,  23,  24,  25,  26,  27,  28
  29,  30,  31,  32,  33,  34,  35,  36,  37,  38,  39,  40,  41,  42,  43,  44
  45,  46,  47,  48,  49,  50,  51,  52,  53,  54, 151, 152, 153, 154, 155, 156
 157, 158, 159, 160, 161, 162, 163, 164, 165, 166, 167, 168, 169, 170, 171, 172
 173, 174, 175, 176, 177, 178, 179, 180, 181, 182, 183, 184, 185, 186, 187, 188
 189,
*Elset, elset=Set-14, instance=plate-1
  10,  20,  30,  40,  50,  60,  70,  80,  90, 100, 110, 120, 130, 140, 150, 160
 170, 180, 190, 200, 210, 220, 230, 240, 250, 260, 270, 280, 290, 300, 310, 320
 330, 340, 350, 360, 370, 380, 390, 400, 401, 411, 421, 431, 441, 451, 461, 471
 481, 491, 501, 511, 521, 531, 541, 551, 561, 571, 581, 591, 601, 611, 621, 631
 641, 651, 661, 671, 681, 691, 701, 711, 721, 731, 741, 751, 761, 771, 781, 791
*Nset, nset=Set-15, instance=plate-1
   2,   3,   6,  16,  17,  18,  19,  20,  21,  22,  23,  24,  25,  26,  27,  28
  29,  30,  31,  32,  33,  34,  35,  36,  37,  38,  39,  40,  41,  42,  43,  44
  45,  46,  47,  48,  49,  50,  51,  52,  53,  54, 151, 152, 153, 154, 155, 156
 157, 158, 159, 160, 161, 162, 163, 164, 165, 166, 167, 168, 169, 170, 171, 172
 173, 174, 175, 176, 177, 178, 179, 180, 181, 182, 183, 184, 185, 186, 187, 188
 189,
*Elset, elset=Set-15, instance=plate-1
  10,  20,  30,  40,  50,  60,  70,  80,  90, 100, 110, 120, 130, 140, 150, 160
 170, 180, 190, 200, 210, 220, 230, 240, 250, 260, 270, 280, 290, 300, 310, 320
 330, 340, 350, 360, 370, 380, 390, 400, 401, 411, 421, 431, 441, 451, 461, 471
 481, 491, 501, 511, 521, 531, 541, 551, 561, 571, 581, 591, 601, 611, 621, 631
 641, 651, 661, 671, 681, 691, 701, 711, 721, 731, 741, 751, 761, 771, 781, 791
*Nset, nset=Set-16, instance=plate-1
   2,   3,   6,  16,  17,  18,  19,  20,  21,  22,  23,  24,  25,  26,  27,  28
  29,  30,  31,  32,  33,  34,  35,  36,  37,  38,  39,  40,  41,  42,  43,  44
  45,  46,  47,  48,  49,  50,  51,  52,  53,  54, 151, 152, 153, 154, 155, 156
 157, 158, 159, 160, 161, 162, 163, 164, 165, 166, 167, 168, 169, 170, 171, 172
 173, 174, 175, 176, 177, 178, 179, 180, 181, 182, 183, 184, 185, 186, 187, 188
 189,
*Elset, elset=Set-16, instance=plate-1
  10,  20,  30,  40,  50,  60,  70,  80,  90, 100, 110, 120, 130, 140, 150, 160
 170, 180, 190, 200, 210, 220, 230, 240, 250, 260, 270, 280, 290, 300, 310, 320
 330, 340, 350, 360, 370, 380, 390, 400, 401, 411, 421, 431, 441, 451, 461, 471
 481, 491, 501, 511, 521, 531, 541, 551, 561, 571, 581, 591, 601, 611, 621, 631
 641, 651, 661, 671, 681, 691, 701, 711, 721, 731, 741, 751, 761, 771, 781, 791
*Nset, nset=Set-17, instance=plate-1
   2,   3,   6,  16,  17,  18,  19,  20,  21,  22,  23,  24,  25,  26,  27,  28
  29,  30,  31,  32,  33,  34,  35,  36,  37,  38,  39,  40,  41,  42,  43,  44
  45,  46,  47,  48,  49,  50,  51,  52,  53,  54, 151, 152, 153, 154, 155, 156
 157, 158, 159, 160, 161, 162, 163, 164, 165, 166, 167, 168, 169, 170, 171, 172
 173, 174, 175, 176, 177, 178, 179, 180, 181, 182, 183, 184, 185, 186, 187, 188
 189,
*Elset, elset=Set-17, instance=plate-1
  10,  20,  30,  40,  50,  60,  70,  80,  90, 100, 110, 120, 130, 140, 150, 160
 170, 180, 190, 200, 210, 220, 230, 240, 250, 260, 270, 280, 290, 300, 310, 320
 330, 340, 350, 360, 370, 380, 390, 400, 401, 411, 421, 431, 441, 451, 461, 471
 481, 491, 501, 511, 521, 531, 541, 551, 561, 571, 581, 591, 601, 611, 621, 631
 641, 651, 661, 671, 681, 691, 701, 711, 721, 731, 741, 751, 761, 771, 781, 791
*Nset, nset=Set-18, instance=plate-1
   2,   3,   6,  16,  17,  18,  19,  20,  21,  22,  23,  24,  25,  26,  27,  28
  29,  30,  31,  32,  33,  34,  35,  36,  37,  38,  39,  40,  41,  42,  43,  44
  45,  46,  47,  48,  49,  50,  51,  52,  53,  54, 151, 152, 153, 154, 155, 156
 157, 158, 159, 160, 161, 162, 163, 164, 165, 166, 167, 168, 169, 170, 171, 172
 173, 174, 175, 176, 177, 178, 179, 180, 181, 182, 183, 184, 185, 186, 187, 188
 189,
*Elset, elset=Set-18, instance=plate-1
  10,  20,  30,  40,  50,  60,  70,  80,  90, 100, 110, 120, 130, 140, 150, 160
 170, 180, 190, 200, 210, 220, 230, 240, 250, 260, 270, 280, 290, 300, 310, 320
 330, 340, 350, 360, 370, 380, 390, 400, 401, 411, 421, 431, 441, 451, 461, 471
 481, 491, 501, 511, 521, 531, 541, 551, 561, 571, 581, 591, 601, 611, 621, 631
 641, 651, 661, 671, 681, 691, 701, 711, 721, 731, 741, 751, 761, 771, 781, 791
*Nset, nset=Set-19, instance=plate-1
   2,   3,   6,  16,  17,  18,  19,  20,  21,  22,  23,  24,  25,  26,  27,  28
  29,  30,  31,  32,  33,  34,  35,  36,  37,  38,  39,  40,  41,  42,  43,  44
  45,  46,  47,  48,  49,  50,  51,  52,  53,  54, 151, 152, 153, 154, 155, 156
 157, 158, 159, 160, 161, 162, 163, 164, 165, 166, 167, 168, 169, 170, 171, 172
 173, 174, 175, 176, 177, 178, 179, 180, 181, 182, 183, 184, 185, 186, 187, 188
 189,
*Elset, elset=Set-19, instance=plate-1
  10,  20,  30,  40,  50,  60,  70,  80,  90, 100, 110, 120, 130, 140, 150, 160
 170, 180, 190, 200, 210, 220, 230, 240, 250, 260, 270, 280, 290, 300, 310, 320
 330, 340, 350, 360, 370, 380, 390, 400, 401, 411, 421, 431, 441, 451, 461, 471
 481, 491, 501, 511, 521, 531, 541, 551, 561, 571, 581, 591, 601, 611, 621, 631
 641, 651, 661, 671, 681, 691, 701, 711, 721, 731, 741, 751, 761, 771, 781, 791
*Nset, nset=Set-20, instance=plate-1
   2,   3,   6,  16,  17,  18,  19,  20,  21,  22,  23,  24,  25,  26,  27,  28
  29,  30,  31,  32,  33,  34,  35,  36,  37,  38,  39,  40,  41,  42,  43,  44
  45,  46,  47,  48,  49,  50,  51,  52,  53,  54, 151, 152, 153, 154, 155, 156
 157, 158, 159, 160, 161, 162, 163, 164, 165, 166, 167, 168, 169, 170, 171, 172
 173, 174, 175, 176, 177, 178, 179, 180, 181, 182, 183, 184, 185, 186, 187, 188
 189,
*Elset, elset=Set-20, instance=plate-1
  10,  20,  30,  40,  50,  60,  70,  80,  90, 100, 110, 120, 130, 140, 150, 160
 170, 180, 190, 200, 210, 220, 230, 240, 250, 260, 270, 280, 290, 300, 310, 320
 330, 340, 350, 360, 370, 380, 390, 400, 401, 411, 421, 431, 441, 451, 461, 471
 481, 491, 501, 511, 521, 531, 541, 551, 561, 571, 581, 591, 601, 611, 621, 631
 641, 651, 661, 671, 681, 691, 701, 711, 721, 731, 741, 751, 761, 771, 781, 791
*Nset, nset=Set-21, instance=plate-1
   2,   3,   6,  16,  17,  18,  19,  20,  21,  22,  23,  24,  25,  26,  27,  28
  29,  30,  31,  32,  33,  34,  35,  36,  37,  38,  39,  40,  41,  42,  43,  44
  45,  46,  47,  48,  49,  50,  51,  52,  53,  54, 151, 152, 153, 154, 155, 156
 157, 158, 159, 160, 161, 162, 163, 164, 165, 166, 167, 168, 169, 170, 171, 172
 173, 174, 175, 176, 177, 178, 179, 180, 181, 182, 183, 184, 185, 186, 187, 188
 189,
*Elset, elset=Set-21, instance=plate-1
  10,  20,  30,  40,  50,  60,  70,  80,  90, 100, 110, 120, 130, 140, 150, 160
 170, 180, 190, 200, 210, 220, 230, 240, 250, 260, 270, 280, 290, 300, 310, 320
 330, 340, 350, 360, 370, 380, 390, 400, 401, 411, 421, 431, 441, 451, 461, 471
 481, 491, 501, 511, 521, 531, 541, 551, 561, 571, 581, 591, 601, 611, 621, 631
 641, 651, 661, 671, 681, 691, 701, 711, 721, 731, 741, 751, 761, 771, 781, 791
*Nset, nset=Set-22, instance=plate-1
   2,   3,   6,  16,  17,  18,  19,  20,  21,  22,  23,  24,  25,  26,  27,  28
  29,  30,  31,  32,  33,  34,  35,  36,  37,  38,  39,  40,  41,  42,  43,  44
  45,  46,  47,  48,  49,  50,  51,  52,  53,  54, 151, 152, 153, 154, 155, 156
 157, 158, 159, 160, 161, 162, 163, 164, 165, 166, 167, 168, 169, 170, 171, 172
 173, 174, 175, 176, 177, 178, 179, 180, 181, 182, 183, 184, 185, 186, 187, 188
 189,
*Elset, elset=Set-22, instance=plate-1
  10,  20,  30,  40,  50,  60,  70,  80,  90, 100, 110, 120, 130, 140, 150, 160
 170, 180, 190, 200, 210, 220, 230, 240, 250, 260, 270, 280, 290, 300, 310, 320
 330, 340, 350, 360, 370, 380, 390, 400, 401, 411, 421, 431, 441, 451, 461, 471
 481, 491, 501, 511, 521, 531, 541, 551, 561, 571, 581, 591, 601, 611, 621, 631
 641, 651, 661, 671, 681, 691, 701, 711, 721, 731, 741, 751, 761, 771, 781, 791
*Nset, nset=Set-23, instance=plate-1
   2,   3,   6,  16,  17,  18,  19,  20,  21,  22,  23,  24,  25,  26,  27,  28
  29,  30,  31,  32,  33,  34,  35,  36,  37,  38,  39,  40,  41,  42,  43,  44
  45,  46,  47,  48,  49,  50,  51,  52,  53,  54, 151, 152, 153, 154, 155, 156
 157, 158, 159, 160, 161, 162, 163, 164, 165, 166, 167, 168, 169, 170, 171, 172
 173, 174, 175, 176, 177, 178, 179, 180, 181, 182, 183, 184, 185, 186, 187, 188
 189,
*Elset, elset=Set-23, instance=plate-1
  10,  20,  30,  40,  50,  60,  70,  80,  90, 100, 110, 120, 130, 140, 150, 160
 170, 180, 190, 200, 210, 220, 230, 240, 250, 260, 270, 280, 290, 300, 310, 320
 330, 340, 350, 360, 370, 380, 390, 400, 401, 411, 421, 431, 441, 451, 461, 471
 481, 491, 501, 511, 521, 531, 541, 551, 561, 571, 581, 591, 601, 611, 621, 631
 641, 651, 661, 671, 681, 691, 701, 711, 721, 731, 741, 751, 761, 771, 781, 791
*Nset, nset=Set-24, instance=plate-1
   2,   3,   6,  16,  17,  18,  19,  20,  21,  22,  23,  24,  25,  26,  27,  28
  29,  30,  31,  32,  33,  34,  35,  36,  37,  38,  39,  40,  41,  42,  43,  44
  45,  46,  47,  48,  49,  50,  51,  52,  53,  54, 151, 152, 153, 154, 155, 156
 157, 158, 159, 160, 161, 162, 163, 164, 165, 166, 167, 168, 169, 170, 171, 172
 173, 174, 175, 176, 177, 178, 179, 180, 181, 182, 183, 184, 185, 186, 187, 188
 189,
*Elset, elset=Set-24, instance=plate-1
  10,  20,  30,  40,  50,  60,  70,  80,  90, 100, 110, 120, 130, 140, 150, 160
 170, 180, 190, 200, 210, 220, 230, 240, 250, 260, 270, 280, 290, 300, 310, 320
 330, 340, 350, 360, 370, 380, 390, 400, 401, 411, 421, 431, 441, 451, 461, 471
 481, 491, 501, 511, 521, 531, 541, 551, 561, 571, 581, 591, 601, 611, 621, 631
 641, 651, 661, 671, 681, 691, 701, 711, 721, 731, 741, 751, 761, 771, 781, 791
*Nset, nset=Set-25, instance=plate-1
   2,   3,   6,  16,  17,  18,  19,  20,  21,  22,  23,  24,  25,  26,  27,  28
  29,  30,  31,  32,  33,  34,  35,  36,  37,  38,  39,  40,  41,  42,  43,  44
  45,  46,  47,  48,  49,  50,  51,  52,  53,  54, 151, 152, 153, 154, 155, 156
 157, 158, 159, 160, 161, 162, 163, 164, 165, 166, 167, 168, 169, 170, 171, 172
 173, 174, 175, 176, 177, 178, 179, 180, 181, 182, 183, 184, 185, 186, 187, 188
 189,
*Elset, elset=Set-25, instance=plate-1
  10,  20,  30,  40,  50,  60,  70,  80,  90, 100, 110, 120, 130, 140, 150, 160
 170, 180, 190, 200, 210, 220, 230, 240, 250, 260, 270, 280, 290, 300, 310, 320
 330, 340, 350, 360, 370, 380, 390, 400, 401, 411, 421, 431, 441, 451, 461, 471
 481, 491, 501, 511, 521, 531, 541, 551, 561, 571, 581, 591, 601, 611, 621, 631
 641, 651, 661, 671, 681, 691, 701, 711, 721, 731, 741, 751, 761, 771, 781, 791
*Nset, nset=Set-26, instance=plate-1
   2,   3,   6,  16,  17,  18,  19,  20,  21,  22,  23,  24,  25,  26,  27,  28
  29,  30,  31,  32,  33,  34,  35,  36,  37,  38,  39,  40,  41,  42,  43,  44
  45,  46,  47,  48,  49,  50,  51,  52,  53,  54, 151, 152, 153, 154, 155, 156
 157, 158, 159, 160, 161, 162, 163, 164, 165, 166, 167, 168, 169, 170, 171, 172
 173, 174, 175, 176, 177, 178, 179, 180, 181, 182, 183, 184, 185, 186, 187, 188
 189,
*Elset, elset=Set-26, instance=plate-1
  10,  20,  30,  40,  50,  60,  70,  80,  90, 100, 110, 120, 130, 140, 150, 160
 170, 180, 190, 200, 210, 220, 230, 240, 250, 260, 270, 280, 290, 300, 310, 320
 330, 340, 350, 360, 370, 380, 390, 400, 401, 411, 421, 431, 441, 451, 461, 471
 481, 491, 501, 511, 521, 531, 541, 551, 561, 571, 581, 591, 601, 611, 621, 631
 641, 651, 661, 671, 681, 691, 701, 711, 721, 731, 741, 751, 761, 771, 781, 791
*Nset, nset=Set-27, instance=plate-1
   2,   3,   6,  16,  17,  18,  19,  20,  21,  22,  23,  24,  25,  26,  27,  28
  29,  30,  31,  32,  33,  34,  35,  36,  37,  38,  39,  40,  41,  42,  43,  44
  45,  46,  47,  48,  49,  50,  51,  52,  53,  54, 151, 152, 153, 154, 155, 156
 157, 158, 159, 160, 161, 162, 163, 164, 165, 166, 167, 168, 169, 170, 171, 172
 173, 174, 175, 176, 177, 178, 179, 180, 181, 182, 183, 184, 185, 186, 187, 188
 189,
*Elset, elset=Set-27, instance=plate-1
  10,  20,  30,  40,  50,  60,  70,  80,  90, 100, 110, 120, 130, 140, 150, 160
 170, 180, 190, 200, 210, 220, 230, 240, 250, 260, 270, 280, 290, 300, 310, 320
 330, 340, 350, 360, 370, 380, 390, 400, 401, 411, 421, 431, 441, 451, 461, 471
 481, 491, 501, 511, 521, 531, 541, 551, 561, 571, 581, 591, 601, 611, 621, 631
 641, 651, 661, 671, 681, 691, 701, 711, 721, 731, 741, 751, 761, 771, 781, 791
*Nset, nset=Set-28, instance=plate-1
   2,   3,   6,  16,  17,  18,  19,  20,  21,  22,  23,  24,  25,  26,  27,  28
  29,  30,  31,  32,  33,  34,  35,  36,  37,  38,  39,  40,  41,  42,  43,  44
  45,  46,  47,  48,  49,  50,  51,  52,  53,  54, 151, 152, 153, 154, 155, 156
 157, 158, 159, 160, 161, 162, 163, 164, 165, 166, 167, 168, 169, 170, 171, 172
 173, 174, 175, 176, 177, 178, 179, 180, 181, 182, 183, 184, 185, 186, 187, 188
 189,
*Elset, elset=Set-28, instance=plate-1
  10,  20,  30,  40,  50,  60,  70,  80,  90, 100, 110, 120, 130, 140, 150, 160
 170, 180, 190, 200, 210, 220, 230, 240, 250, 260, 270, 280, 290, 300, 310, 320
 330, 340, 350, 360, 370, 380, 390, 400, 401, 411, 421, 431, 441, 451, 461, 471
 481, 491, 501, 511, 521, 531, 541, 551, 561, 571, 581, 591, 601, 611, 621, 631
 641, 651, 661, 671, 681, 691, 701, 711, 721, 731, 741, 751, 761, 771, 781, 791
*Nset, nset=Set-29, instance=plate-1
   2,   3,   6,  16,  17,  18,  19,  20,  21,  22,  23,  24,  25,  26,  27,  28
  29,  30,  31,  32,  33,  34,  35,  36,  37,  38,  39,  40,  41,  42,  43,  44
  45,  46,  47,  48,  49,  50,  51,  52,  53,  54, 151, 152, 153, 154, 155, 156
 157, 158, 159, 160, 161, 162, 163, 164, 165, 166, 167, 168, 169, 170, 171, 172
 173, 174, 175, 176, 177, 178, 179, 180, 181, 182, 183, 184, 185, 186, 187, 188
 189,
*Elset, elset=Set-29, instance=plate-1
  10,  20,  30,  40,  50,  60,  70,  80,  90, 100, 110, 120, 130, 140, 150, 160
 170, 180, 190, 200, 210, 220, 230, 240, 250, 260, 270, 280, 290, 300, 310, 320
 330, 340, 350, 360, 370, 380, 390, 400, 401, 411, 421, 431, 441, 451, 461, 471
 481, 491, 501, 511, 521, 531, 541, 551, 561, 571, 581, 591, 601, 611, 621, 631
 641, 651, 661, 671, 681, 691, 701, 711, 721, 731, 741, 751, 761, 771, 781, 791
*Nset, nset=Set-30, instance=plate-1
   2,   3,   6,  16,  17,  18,  19,  20,  21,  22,  23,  24,  25,  26,  27,  28
  29,  30,  31,  32,  33,  34,  35,  36,  37,  38,  39,  40,  41,  42,  43,  44
  45,  46,  47,  48,  49,  50,  51,  52,  53,  54, 151, 152, 153, 154, 155, 156
 157, 158, 159, 160, 161, 162, 163, 164, 165, 166, 167, 168, 169, 170, 171, 172
 173, 174, 175, 176, 177, 178, 179, 180, 181, 182, 183, 184, 185, 186, 187, 188
 189,
*Elset, elset=Set-30, instance=plate-1
  10,  20,  30,  40,  50,  60,  70,  80,  90, 100, 110, 120, 130, 140, 150, 160
 170, 180, 190, 200, 210, 220, 230, 240, 250, 260, 270, 280, 290, 300, 310, 320
 330, 340, 350, 360, 370, 380, 390, 400, 401, 411, 421, 431, 441, 451, 461, 471
 481, 491, 501, 511, 521, 531, 541, 551, 561, 571, 581, 591, 601, 611, 621, 631
 641, 651, 661, 671, 681, 691, 701, 711, 721, 731, 741, 751, 761, 771, 781, 791
*Nset, nset=Set-31, instance=plate-1
   2,   3,   6,  16,  17,  18,  19,  20,  21,  22,  23,  24,  25,  26,  27,  28
  29,  30,  31,  32,  33,  34,  35,  36,  37,  38,  39,  40,  41,  42,  43,  44
  45,  46,  47,  48,  49,  50,  51,  52,  53,  54, 151, 152, 153, 154, 155, 156
 157, 158, 159, 160, 161, 162, 163, 164, 165, 166, 167, 168, 169, 170, 171, 172
 173, 174, 175, 176, 177, 178, 179, 180, 181, 182, 183, 184, 185, 186, 187, 188
 189,
*Elset, elset=Set-31, instance=plate-1
  10,  20,  30,  40,  50,  60,  70,  80,  90, 100, 110, 120, 130, 140, 150, 160
 170, 180, 190, 200, 210, 220, 230, 240, 250, 260, 270, 280, 290, 300, 310, 320
 330, 340, 350, 360, 370, 380, 390, 400, 401, 411, 421, 431, 441, 451, 461, 471
 481, 491, 501, 511, 521, 531, 541, 551, 561, 571, 581, 591, 601, 611, 621, 631
 641, 651, 661, 671, 681, 691, 701, 711, 721, 731, 741, 751, 761, 771, 781, 791
*Nset, nset=Set-32, instance=plate-1
   2,   3,   6,  16,  17,  18,  19,  20,  21,  22,  23,  24,  25,  26,  27,  28
  29,  30,  31,  32,  33,  34,  35,  36,  37,  38,  39,  40,  41,  42,  43,  44
  45,  46,  47,  48,  49,  50,  51,  52,  53,  54, 151, 152, 153, 154, 155, 156
 157, 158, 159, 160, 161, 162, 163, 164, 165, 166, 167, 168, 169, 170, 171, 172
 173, 174, 175, 176, 177, 178, 179, 180, 181, 182, 183, 184, 185, 186, 187, 188
 189,
*Elset, elset=Set-32, instance=plate-1
  10,  20,  30,  40,  50,  60,  70,  80,  90, 100, 110, 120, 130, 140, 150, 160
 170, 180, 190, 200, 210, 220, 230, 240, 250, 260, 270, 280, 290, 300, 310, 320
 330, 340, 350, 360, 370, 380, 390, 400, 401, 411, 421, 431, 441, 451, 461, 471
 481, 491, 501, 511, 521, 531, 541, 551, 561, 571, 581, 591, 601, 611, 621, 631
 641, 651, 661, 671, 681, 691, 701, 711, 721, 731, 741, 751, 761, 771, 781, 791
*Nset, nset=Set-35, instance="layer 1/6-1"
    5,    6,    9, 1987, 1988, 1989, 1990, 1991, 1992, 1993, 1994, 1995, 1996, 1997, 1998, 1999
 2000, 2001, 2002, 2003, 2004, 2005, 2006, 2007, 2008, 2009, 2010, 2011, 2012, 2013, 2014, 2015
 2016, 2067, 2068, 2069, 2070, 2071, 2072, 2073, 2074, 2075, 2076, 2077, 2078, 2079, 2080, 2081
 2082, 2083, 2084, 2085, 2086, 2087, 2088, 2089, 2090, 2091, 2092, 2093, 2094, 2095, 2096
*Elset, elset=Set-35, instance="layer 1/6-1"
 34880, 34881, 34894, 34895, 34896, 34897, 34912, 34935, 34946, 34950, 34952, 34953, 34958, 34959, 34960, 34966
 34967, 34968, 34994, 34995, 35012, 35107, 35109, 35151, 35154, 35155, 35156, 41664, 41688, 41720, 41722, 43925
 43927, 43928, 43953, 43956, 43968, 43977, 43978, 43979, 43984, 43985, 43991, 43992, 43993, 44000, 44006, 44007
 44052, 44069, 44083, 44094, 44109, 44123, 44179, 44180, 44181, 44182, 50372, 50377, 50384, 50385
*Nset, nset=m_Set-8, instance=plate-1
 1,
*Nset, nset=m_Set-10
 2,
*Elset, elset=_m_Surf-1_S2, internal, instance=plate-1, generate
  10,  400,   10
*Elset, elset=_m_Surf-1_S4, internal, instance=plate-1, generate
 401,  791,   10
*Surface, type=ELEMENT, name=m_Surf-1
_m_Surf-1_S2, S2
_m_Surf-1_S4, S4
*Elset, elset=_m_Surf-4_S2, internal, instance=plate-1, generate
  10,  400,   10
*Elset, elset=_m_Surf-4_S4, internal, instance=plate-1, generate
 401,  791,   10
*Surface, type=ELEMENT, name=m_Surf-4
_m_Surf-4_S2, S2
_m_Surf-4_S4, S4
*Elset, elset=_m_Surf-10_S2, internal, instance=plate-1, generate
  10,  400,   10
*Elset, elset=_m_Surf-10_S4, internal, instance=plate-1, generate
 401,  791,   10
*Surface, type=ELEMENT, name=m_Surf-10
_m_Surf-10_S2, S2
_m_Surf-10_S4, S4
*Elset, elset=_m_Surf-12_S3, internal, instance=plate-1, generate
 391,  400,    1
*Surface, type=ELEMENT, name=m_Surf-12
_m_Surf-12_S3, S3
*Elset, elset=_s_Surf-3_S2, internal, instance=plate-1, generate
  10,  400,   10
*Elset, elset=_s_Surf-3_S4, internal, instance=plate-1, generate
 401,  791,   10
*Surface, type=ELEMENT, name=s_Surf-3
_s_Surf-3_S2, S2
_s_Surf-3_S4, S4
*Elset, elset=_s_Surf-4_S2, internal, instance=plate-1, generate
 410,  800,   10
*Elset, elset=_s_Surf-4_S4, internal, instance=plate-1, generate
   1,  391,   10
*Surface, type=ELEMENT, name=s_Surf-4
_s_Surf-4_S2, S2
_s_Surf-4_S4, S4
*Elset, elset=_s_Surf-8_S2, internal, instance=plate-1, generate
  10,  400,   10
*Elset, elset=_s_Surf-8_S4, internal, instance=plate-1, generate
 401,  791,   10
*Surface, type=ELEMENT, name=s_Surf-8
_s_Surf-8_S2, S2
_s_Surf-8_S4, S4
*Elset, elset=_s_Surf-10_S3, internal, instance=plate-1
 391, 392, 393, 394, 395, 396, 397, 398, 399, 400, 791, 792, 793, 794, 795, 796
 797, 798, 799, 800
*Surface, type=ELEMENT, name=s_Surf-10
_s_Surf-10_S3, S3
*Elset, elset=_s_Surf-12_S3, internal, instance=plate-1, generate
 791,  800,    1
*Surface, type=ELEMENT, name=s_Surf-12
_s_Surf-12_S3, S3
*Elset, elset=_s_Surf-14_S2, internal, instance=plate-1, generate
  10,  400,   10
*Elset, elset=_s_Surf-14_S4, internal, instance=plate-1, generate
 401,  791,   10
*Surface, type=ELEMENT, name=s_Surf-14
_s_Surf-14_S2, S2
_s_Surf-14_S4, S4
** Constraint: Top-Bottom
*Tie, name=Top-Bottom, adjust=yes
plate-1."top surrface", plate-1."bottom surface"
*Elset, elset="__general contact_gcs0_10_S1", internal, instance="layer 1/6-1"
    54,   621,   622,   624,   626,   629,   642,   724,   767,  1192,  1262,  1293,  1321,  1322,  1345,  1347
  1366,  1380,  1386,  1402,  1412,  1414,  1422,  1426,  1441,  1713,  1804,  2144,  2327,  2411,  2730,  3248
  3249,  3253,  3361,  3509,  3543,  3590,  3853,  3861,  3878,  3879,  3889,  3894,  3898,  3899,  3905,  3911
  3913,  3916,  3918,  3922,  3927,  3928,  3929,  3937,  3939,  3941,  3942,  3944,  3945,  3949,  3953,  4001
  4247,  4254,  4259,  4265,  4269,  4271,  4281,  4285,  4294,  4300,  4313,  4314,  4320,  4327,  4328,  4330
  4333,  4341,  4379,  4395,  4397,  4405,  4406,  4408,  4414,  4427,  4428,  4429,  4430,  4433,  4437,  4440
  4467,  4525,  4526,  4532,  4569,  4781,  4838, 11682, 11684, 11721, 11761, 11767, 11794, 11796, 11801, 11810
 11811, 11818, 11827, 11829
*Elset, elset="__general contact_gcs0_10_S3", internal, instance="layer 1/6-1"
   620,   628,   757,  1230,  1308,  1338,  1358,  1389,  1423,  1443,  1790,  2076,  2077,  2934,  3046,  3501
  3565,  3582,  3588,  3623,  3629,  3630,  3634,  3643,  3832,  3855,  3871,  3876,  3882,  3884,  3885,  3897
  3904,  3909,  3912,  3914,  3919,  3931,  3934,  3935,  3938,  3940,  3947,  3948,  3950,  3956,  4245,  4255
  4272,  4274,  4276,  4282,  4286,  4290,  4295,  4299,  4301,  4309,  4326,  4342,  4348,  4351,  4360,  4370
  4388,  4400,  4402,  4411,  4412,  4415,  4419,  4478,  4530,  4531,  4553,  4635,  4636,  4691,  4703,  5207
  5523,  6627, 11683, 11730, 11758, 11760, 11768, 11771, 11774, 11775, 11782, 11785, 11789, 11798, 11799, 11800
 11802, 11804, 11808, 11813, 11822, 11828, 11832
*Elset, elset="__general contact_gcs0_10_S2", internal, instance="layer 1/6-1"
   632,  1164,  1170,  1194,  1204,  1239,  1259,  1268,  1272,  1281,  1282,  1298,  1299,  1307,  1316,  1327
  1334,  1351,  1354,  1365,  1388,  1401,  1413,  1418,  1429,  1431,  1714,  2989,  3044,  3257,  3334,  3422
  3432,  3460,  3468,  3517,  3528,  3529,  3561,  3589,  3633,  3646,  3698,  3707,  3841,  3844,  3851,  3858
  3859,  3860,  3864,  3867,  3874,  3875,  3881,  3883,  3891,  3892,  3893,  3901,  3907,  3920,  3933,  3936
  4251,  4256,  4273,  4275,  4277,  4279,  4293,  4296,  4311,  4317,  4334,  4336,  4338,  4340,  4343,  4345
  4349,  4354,  4357,  4361,  4363,  4368,  4381,  4394,  4404,  4421,  4423,  4424,  4425,  4426,  4432,  4438
  4439,  4455,  4456,  4458,  4464,  4472,  4476,  4650,  5734, 11208, 11602, 11615, 11617, 11618, 11619, 11621
 11641, 11647, 11650, 11651, 11656, 11657, 11658, 11660, 11712, 11714, 11716, 11718, 11722, 11728, 11732, 11733
 11735, 11736, 11740, 11743, 11748, 11751, 11754, 11778, 11831
*Elset, elset="__general contact_gcs0_10_S4", internal, instance="layer 1/6-1"
  1165,  1189,  1196,  1197,  1218,  1232,  1250,  1267,  1271,  1273,  1292,  1300,  1306,  1317,  1329,  1333
  1339,  1381,  1417,  2933,  2951,  3045,  3241,  3304,  3355,  3396,  3415,  3431,  3440,  3466,  3542,  3575
  3593,  3680,  3704,  3708,  3831,  3843,  3845,  3846,  3847,  3854,  3857,  3862,  3865,  3866,  3868,  3869
  3870,  3873,  3887,  3896,  3903,  3906,  3908,  3923,  3932,  3943,  3951,  3955,  3957,  4244,  4258,  4264
  4266,  4280,  4283,  4284,  4303,  4306,  4307,  4315,  4316,  4318,  4322,  4325,  4329,  4331,  4335,  4337
  4346,  4347,  4350,  4352,  4355,  4356,  4367,  4371,  4372,  4377,  4380,  4384,  4386,  4389,  4398,  4401
  4413,  4416,  4441,  4443,  4445,  4529,  4533,  4634,  4637,  4721,  4779,  4872,  5243,  5557,  5582,  5822
 11195, 11623, 11644, 11653, 11713, 11723, 11731, 11746, 11747, 11756
*Surface, type=ELEMENT, name="_general contact_gcs0_10", internal
"__general contact_gcs0_10_S1", S1
"__general contact_gcs0_10_S3", S3
"__general contact_gcs0_10_S2", S2
"__general contact_gcs0_10_S4", S4
*Elset, elset="__general contact_gcs0_12_S2", internal, instance="layer 1/6-1"
 17321, 17956, 18115, 18119, 18120, 18124, 18212, 18268, 18406, 18422, 18423, 18430, 18437, 18438, 18439, 18442
 18447, 18512, 18514, 18519, 18572, 18582, 18586, 18600, 18611, 19308, 19800, 20168, 20247, 20430, 20588, 20666
 20934, 20969, 20992, 20994, 20995, 21029, 21049, 21122, 21124, 21145, 21176, 21182, 21312, 21319, 21322, 21327
 21328, 21329, 21333, 21335, 21340, 21341, 21343, 21344, 21349, 21352, 21357, 21359, 21360, 21365, 21367, 21370
 21376, 21377, 21379, 21384, 21385, 21392, 21400, 21447, 21450, 21767, 21771, 21773, 21778, 21781, 21785, 21796
 21798, 21799, 21814, 21819, 21822, 21824, 21825, 21828, 21832, 21842, 21844, 21861, 21864, 21873, 21874, 21883
 21889, 21890, 21893, 21895, 21899, 21900, 21910, 21919, 21920, 21921, 21923, 21930, 21931, 21934, 21935, 21938
 21940, 21944, 21946, 21948, 21949, 21956, 21963, 21971, 21977, 22031, 22035, 22041, 22413, 25690, 26079, 29105
 29106, 29114, 29118, 29124, 29127, 29128, 29133, 29134, 29317, 29322, 29323, 29329, 29333, 29337, 29343, 29350
 29353, 29358, 29359, 29360, 29361, 29366, 29370, 29372, 29374, 29384, 29388, 29393, 29394, 29398, 29401, 29404
 29412, 29413, 29418, 29423, 29424, 29425
*Elset, elset="__general contact_gcs0_12_S3", internal, instance="layer 1/6-1"
 17955, 18121, 18271, 18441, 18446, 18511, 18522, 18569, 18580, 18593, 18601, 18614, 18621, 18628, 18634, 18637
 18638, 18660, 18662, 19797, 19947, 20175, 20432, 20501, 20639, 20673, 20968, 21000, 21135, 21144, 21147, 21150
 21157, 21166, 21180, 21330, 21336, 21337, 21350, 21358, 21374, 21380, 21406, 21413, 21420, 21421, 21423, 21426
 21428, 21429, 21432, 21518, 21779, 21786, 21789, 21795, 21813, 21817, 21820, 21830, 21831, 21834, 21867, 21876
 21888, 21898, 21909, 21918, 21924, 21928, 21951, 22032, 22044, 22077, 22259, 22327, 22397, 26099, 29041, 29042
 29051, 29059, 29068, 29071, 29313, 29319
*Elset, elset="__general contact_gcs0_12_S1", internal, instance="layer 1/6-1"
 17957, 18275, 18341, 18410, 18415, 18427, 18496, 18510, 18564, 18566, 18568, 18576, 18591, 18609, 18618, 18646
 18659, 18661, 18805, 19949, 20174, 20231, 21141, 21163, 21172, 21175, 21178, 21320, 21323, 21351, 21361, 21389
 21391, 21402, 21405, 21411, 21412, 21416, 21417, 21419, 21424, 21425, 21430, 21431, 21759, 21760, 21763, 21769
 21777, 21787, 21788, 21805, 21809, 21835, 21836, 21837, 21839, 21841, 21843, 21848, 21852, 21853, 21856, 21860
 21863, 21868, 21880, 21882, 21892, 21902, 21912, 21915, 21941, 21962, 21970, 21999, 22049, 22074, 22297, 22511
 25696, 29039, 29040, 29044, 29047, 29048, 29050, 29054, 29063, 29066, 29067, 29069, 29078, 29136
*Elset, elset="__general contact_gcs0_12_S4", internal, instance="layer 1/6-1"
 18113, 18117, 18267, 18269, 18270, 18405, 18421, 18436, 18527, 18528, 18567, 18570, 18571, 18574, 18579, 18583
 18594, 18603, 18608, 18615, 18625, 18631, 18647, 18652, 18751, 18797, 18799, 19420, 19534, 19759, 19796, 20102
 20169, 20218, 20219, 20431, 20500, 20669, 20997, 20998, 21086, 21123, 21146, 21181, 21311, 21315, 21317, 21318
 21324, 21325, 21326, 21331, 21332, 21334, 21347, 21355, 21356, 21363, 21364, 21366, 21368, 21369, 21372, 21373
 21375, 21381, 21382, 21386, 21388, 21394, 21398, 21399, 21401, 21407, 21410, 21758, 21770, 21774, 21782, 21783
 21791, 21794, 21797, 21800, 21804, 21806, 21810, 21811, 21829, 21838, 21840, 21847, 21850, 21855, 21857, 21858
 21866, 21869, 21871, 21872, 21885, 21887, 21894, 21897, 21901, 21906, 21908, 21913, 21916, 21917, 21925, 21926
 21929, 21933, 21936, 21937, 21943, 21945, 21947, 21969, 21974, 22036, 22040, 22362, 22412, 22666, 26100, 29065
 29070, 29342, 29391, 29421
*Surface, type=ELEMENT, name="_general contact_gcs0_12", internal
"__general contact_gcs0_12_S2", S2
"__general contact_gcs0_12_S3", S3
"__general contact_gcs0_12_S4", S4
"__general contact_gcs0_12_S1", S1
*Elset, elset="__general contact_gcs0_14_S3", internal, instance="layer 1/6-1"
 34880, 34881, 34950, 34952, 34958, 34959, 34968, 35012, 41664, 41720
*Elset, elset="__general contact_gcs0_14_S1", internal, instance="layer 1/6-1"
 34894, 34895, 34896, 34935, 34946, 34960, 34994, 35151, 35154, 35155, 41688, 41722
*Elset, elset="__general contact_gcs0_14_S2", internal, instance="layer 1/6-1"
 34897, 34912, 35107, 35156
*Elset, elset="__general contact_gcs0_14_S4", internal, instance="layer 1/6-1"
 34953, 34966, 34967, 34995, 35109
*Surface, type=ELEMENT, name="_general contact_gcs0_14", internal
"__general contact_gcs0_14_S3", S3
"__general contact_gcs0_14_S1", S1
"__general contact_gcs0_14_S2", S2
"__general contact_gcs0_14_S4", S4
*Elset, elset="__general contact_gcs0_16_S2", internal, instance="layer 1/6-1"
 34746,
*Elset, elset="__general contact_gcs0_16_S1", internal, instance="layer 1/6-1"
 34904, 35004, 35005, 35017, 35018, 35019, 35031, 35032, 35159, 35423
*Elset, elset="__general contact_gcs0_16_S3", internal, instance="layer 1/6-1"
 34976, 34978, 35003, 41954
*Elset, elset="__general contact_gcs0_16_S4", internal, instance="layer 1/6-1"
 41667,
*Surface, type=ELEMENT, name="_general contact_gcs0_16", internal
"__general contact_gcs0_16_S2", S2
"__general contact_gcs0_16_S1", S1
"__general contact_gcs0_16_S4", S4
"__general contact_gcs0_16_S3", S3
*Elset, elset="__general contact_gcs0_17_S3", internal, instance="layer 1/6-1"
 43606, 43947
*Elset, elset="__general contact_gcs0_17_S2", internal, instance="layer 1/6-1"
 43917, 43935, 43936, 44022, 44044, 44169, 44174, 44175, 44481
*Elset, elset="__general contact_gcs0_17_S4", internal, instance="layer 1/6-1"
 43939, 44019, 44076
*Elset, elset="__general contact_gcs0_17_S1", internal, instance="layer 1/6-1"
 44173, 44776
*Surface, type=ELEMENT, name="_general contact_gcs0_17", internal
"__general contact_gcs0_17_S3", S3
"__general contact_gcs0_17_S2", S2
"__general contact_gcs0_17_S4", S4
"__general contact_gcs0_17_S1", S1
*Elset, elset="__general contact_gcs0_19_S3", internal, instance="layer 1/6-1"
 43925, 43928, 43953, 43992, 44000, 44069, 44083, 44094, 50372, 50377
*Elset, elset="__general contact_gcs0_19_S1", internal, instance="layer 1/6-1"
 43927, 43984, 44006, 44007, 44052, 44109, 44179, 44182, 50384, 50385
*Elset, elset="__general contact_gcs0_19_S4", internal, instance="layer 1/6-1"
 43956, 43979, 43985, 44123, 44181
*Elset, elset="__general contact_gcs0_19_S2", internal, instance="layer 1/6-1"
 43968, 43977, 43978, 43991, 43993, 44180
*Surface, type=ELEMENT, name="_general contact_gcs0_19", internal
"__general contact_gcs0_19_S3", S3
"__general contact_gcs0_19_S1", S1
"__general contact_gcs0_19_S4", S4
"__general contact_gcs0_19_S2", S2
*End Assembly
** 
** MATERIALS
** 
*Material, name=elastomer
*Density
1175.,
*Hyperelastic, neo hooke
<C10>,0.
*Material, name=steel
*Density
7850.,
*Elastic
 2.1e+11, 0.3
** 
** INTERACTION PROPERTIES
** 
*Surface Interaction, name=frict
1.,
*Friction, slip tolerance=0.005
 1.045,
** 
** BOUNDARY CONDITIONS
** 
** Name: fix_all_nodes Type: Symmetry/Antisymmetry/Encastre
*Boundary
plate-1.all_nodes, XSYMM
** Name: fix_all_sides Type: Symmetry/Antisymmetry/Encastre
*Boundary
Set-2, XSYMM
** Name: fix_inner_layer Type: Symmetry/Antisymmetry/Encastre
*Boundary
Set-35, ENCASTRE
** 
** INTERACTIONS
** 
** Interaction: general contact
*Contact
*Contact Inclusions, ALL EXTERIOR
*Contact Property Assignment
 ,  , frict
*Surface Property Assignment, property=GEOMETRIC CORRECTION
"_general contact_gcs0_10", Circumferential, 0.04, 0.087052
"_general contact_gcs0_12", Circumferential, 0.04, 0.087052
"_general contact_gcs0_14", Circumferential, 0.04, 0.087052
"_general contact_gcs0_16", Circumferential, 0.04, 0.087052
"_general contact_gcs0_17", Circumferential, 0.04, 0.087052
"_general contact_gcs0_19", Circumferential, 0.04, 0.087052
** ----------------------------------------------------------------
** 
** STEP: press
** 
*Step, name=press, nlgeom=YES
*Static
0.01, 1., 1e-05, 0.01
** 
** BOUNDARY CONDITIONS
** 
** Name: press Type: Displacement/Rotation
*Boundary
Set-32, 1, 1
Set-32, 2, 2, 0.003
Set-32, 6, 6
** 
** OUTPUT REQUESTS
** 
*Restart, write, frequency=0
** 
** FIELD OUTPUT: F-Output-1
** 
*Output, field, variable=PRESELECT
** 
** HISTORY OUTPUT: H-Output-3
** 
*Output, history
*Contact Output
CAREA, CFT2
** 
** HISTORY OUTPUT: H-Output-1
** 
*Node Output, nset=plate-1.one_node
U2, 
** 
** HISTORY OUTPUT: H-Output-2
** 
*Node Output, nset=plate-1.under_node
CF2, RF2, U2
*End Step
