*Heading
** Job name: press1 Model name: Model-1
** Generated by: Abaqus/CAE 2022
*Preprint, echo=NO, model=NO, history=NO, contact=NO
**
** PARTS
**
*Part, name=layer
*Node
      1,           0., -0.0700000003
      2,           0., -0.0599999987
      3, -0.0485410206, -0.0352671146
      4, -0.0566311888, -0.0411449671
      5, 0.0566311888, -0.0411449671
      6, 0.0485410206, -0.0352671146
      7,           0., -0.0687500015
      8,           0., -0.0675000027
      9,           0., -0.0662499964
     10,           0., -0.0649999976
     11,           0., -0.0637499988
     12,           0.,      -0.0625
     13,           0., -0.0612500012
     14, -0.0012030825, -0.0599879362
     15, -0.00240568118, -0.0599517524
     16, -0.00360731268, -0.0598914623
     17, -0.00480749365, -0.0598070882
     18, -0.00600574166, -0.0596986674
     19, -0.00720157428, -0.0595662445
     20, -0.00839451142, -0.0594098642
** ... 835 like lines cut
*Element, type=CPS4R
  1,   1,   7, 212, 112
  2,   7,   8, 213, 212
  3,   8,   9, 214, 213
  4,   9,  10, 215, 214
  5,  10,  11, 216, 215
  6,  11,  12, 217, 216
  7,  12,  13, 218, 217
  8,  13,   2,  14, 218
  9, 112, 212, 219, 111
 10, 212, 213, 220, 219
 11, 213, 214, 221, 220
 12, 214, 215, 222, 221
 13, 215, 216, 223, 222
 14, 216, 217, 224, 223
 15, 217, 218, 225, 224
 16, 218,  14,  15, 225
 17, 111, 219, 226, 110
 18, 219, 220, 227, 226
 19, 220, 221, 228, 227
 20, 221, 222, 229, 228
** ... 732 like lines cut
*Nset, nset=Set-1, generate
   1,  855,    1
*Elset, elset=Set-1, generate
   1,  752,    1
** Section: elastomer
*Solid Section, elset=Set-1, material=elastomer
,
*End Part
**  
*Part, name=plate
*Node
      1, 0.0399999991, 0.00625000009
      2, 0.0399999991, 0.0162499994
      3,           0., 0.0162499994
      4,           0., 0.00625000009
      5, 0.0799999982, 0.00625000009
      6, 0.0799999982, 0.0162499994
      7, 0.0299999993, 0.0162499994
      8, 0.0199999996, 0.0162499994
      9, 0.00999999978, 0.0162499994
     10, 0.00999999978, 0.00625000009
     11, 0.0199999996, 0.00625000009
     12, 0.0299999993, 0.00625000009
     13, 0.0500000007, 0.00625000009
     14, 0.0599999987, 0.00625000009
     15, 0.0700000003, 0.00625000009
     16, 0.0700000003, 0.0162499994
     17, 0.0599999987, 0.0162499994
     18, 0.0500000007, 0.0162499994
*Element, type=CPS4R
1,  1,  2,  7, 12
2, 12,  7,  8, 11
3, 11,  8,  9, 10
4, 10,  9,  3,  4
5,  2,  1, 13, 18
6, 18, 13, 14, 17
7, 17, 14, 15, 16
8, 16, 15,  5,  6
*Nset, nset=Set-1, generate
  1,  18,   1
*Elset, elset=Set-1, generate
 1,  8,  1
*Nset, nset=all_nodes, generate
  1,  18,   1
*Nset, nset=one_node
 2,
** Section: steel
*Solid Section, elset=Set-1, material=steel
,
*End Part
**  
**
** ASSEMBLY
**
*Assembly, name=Assembly
**  
*Instance, name=plate-1, part=plate
*End Instance
**  
*Instance, name=layer-1, part=layer
        0.04,      0.08625,           0.
*End Instance
**  
*Nset, nset=Set-1, instance=layer-1
   2,   3,   6,  14,  15,  16,  17,  18,  19,  20,  21,  22,  23,  24,  25,  26
  27,  28,  29,  30,  31,  32,  33,  34,  35,  36,  37,  38,  39,  40,  41,  42
  43,  44,  45,  46,  47,  48,  49,  50,  51,  52,  53,  54,  55,  56,  57,  58
  59, 166, 167, 168, 169, 170, 171, 172, 173, 174, 175, 176, 177, 178, 179, 180
 181, 182, 183, 184, 185, 186, 187, 188, 189, 190, 191, 192, 193, 194, 195, 196
 197, 198, 199, 200, 201, 202, 203, 204, 205, 206, 207, 208, 209, 210, 211
*Elset, elset=Set-1, instance=layer-1
   8,  16,  24,  32,  40,  48,  56,  64,  72,  80,  88,  96, 104, 112, 120, 128
 136, 144, 152, 160, 168, 176, 184, 192, 200, 208, 216, 224, 232, 240, 248, 256
 264, 272, 280, 288, 296, 304, 312, 320, 328, 336, 344, 352, 360, 368, 376, 377
 385, 393, 401, 409, 417, 425, 433, 441, 449, 457, 465, 473, 481, 489, 497, 505
 513, 521, 529, 537, 545, 553, 561, 569, 577, 585, 593, 601, 609, 617, 625, 633
 641, 649, 657, 665, 673, 681, 689, 697, 705, 713, 721, 729, 737, 745
*Nset, nset=Set-2, instance=plate-1, generate
  1,  18,   1
*Elset, elset=Set-2, instance=plate-1, generate
 1,  8,  1
*Nset, nset=Set-3, instance=plate-1
  2,  3,  6,  7,  8,  9, 16, 17, 18
*Elset, elset=Set-3, instance=plate-1, generate
 1,  8,  1
*Nset, nset=Set-4, instance=plate-1
  2,  3,  6,  7,  8,  9, 16, 17, 18
*Elset, elset=Set-4, instance=plate-1, generate
 1,  8,  1
*Elset, elset=_m_Surf-1_S2, internal, instance=plate-1, generate
 1,  4,  1
*Elset, elset=_m_Surf-1_S4, internal, instance=plate-1, generate
 5,  8,  1
*Surface, type=ELEMENT, name=m_Surf-1
_m_Surf-1_S2, S2
_m_Surf-1_S4, S4
*Elset, elset=_s_Surf-1_S4, internal, instance=layer-1, generate
   1,  369,    8
*Elset, elset=_s_Surf-1_S2, internal, instance=layer-1, generate
 384,  752,    8
*Surface, type=ELEMENT, name=s_Surf-1
_s_Surf-1_S4, S4
_s_Surf-1_S2, S2
*End Assembly
** 
** MATERIALS
** 
*Material, name=elastomer
*Density
1175.,
*Hyperelastic, neo hooke
 2e+06, 1e-06
*Material, name=steel
*Density
7850.,
*Elastic
 2.1e+11, 0.3
** 
** INTERACTION PROPERTIES
** 
*Surface Interaction, name=frict
1.,
*Friction, slip tolerance=0.005
 0.3,
** 
** BOUNDARY CONDITIONS
** 
** Name: fix_all_nodes Type: Symmetry/Antisymmetry/Encastre
*Boundary
plate-1.all_nodes, XSYMM
** Name: fix_all_sides Type: Symmetry/Antisymmetry/Encastre
*Boundary
Set-2, XSYMM
** Name: fix_inner_layer Type: Symmetry/Antisymmetry/Encastre
*Boundary
Set-1, ENCASTRE
** 
** INTERACTIONS
** 
** Interaction: frict_int
*Contact Pair, interaction=frict, type=SURFACE TO SURFACE
s_Surf-1, m_Surf-1
** ----------------------------------------------------------------
** 
** STEP: contact
** 
*Step, name=contact, nlgeom=YES
*Static
0.01, 1., 1e-05, 0.01
** 
** BOUNDARY CONDITIONS
** 
** Name: contact Type: Displacement/Rotation
*Boundary
Set-3, 1, 1
Set-3, 2, 2, 5.86e-05
Set-3, 6, 6
** 
** OUTPUT REQUESTS
** 
*Restart, write, frequency=0
** 
** FIELD OUTPUT: F-Output-1
** 
*Output, field, variable=PRESELECT
** 
** HISTORY OUTPUT: H-Output-1
** 
*Output, history
*Node Output, nset=plate-1.one_node
RF2, U2
*End Step
** ----------------------------------------------------------------
** 
** STEP: press
** 
*Step, name=press, nlgeom=YES
*Static
0.01, 1., 1e-05, 0.01
** 
** BOUNDARY CONDITIONS
** 
** Name: contact Type: Displacement/Rotation
*Boundary, op=NEW
** Name: fix_all_nodes Type: Symmetry/Antisymmetry/Encastre
*Boundary, op=NEW
plate-1.all_nodes, XSYMM
** Name: fix_all_sides Type: Symmetry/Antisymmetry/Encastre
*Boundary, op=NEW
Set-2, XSYMM
** Name: fix_inner_layer Type: Symmetry/Antisymmetry/Encastre
*Boundary, op=NEW
Set-1, ENCASTRE
** Name: press Type: Displacement/Rotation
*Boundary, op=NEW
Set-4, 1, 1
Set-4, 2, 2, 0.000637
Set-4, 6, 6
** 
** OUTPUT REQUESTS
** 
*Restart, write, frequency=0
** 
** FIELD OUTPUT: F-Output-1
** 
*Output, field
*Node Output
RF, U
** 
** HISTORY OUTPUT: H-Output-1
** 
*Output, history
*Node Output, nset=plate-1.one_node
RF2, U2
*End Step
