*Heading
** Job name: curve_test Model name: Model-1
** Generated by: Abaqus/CAE 2022
*Preprint, echo=NO, model=NO, history=NO, contact=NO
**
*PARAMETER
C10=
** PARTS
**
*Part, name="layer 1/6"
*Node
      1,  0.016375592, -0.0660400018
      2,           0., -0.0660400018
      3,           0., -0.0680399984
      4, -0.016375592, -0.0660400018
      5, 0.0163256656, -0.0660400018
      6, 0.0162757412, -0.0660400018
      7, 0.0162258148, -0.0660400018
      8, 0.0161758885, -0.0660400018
      9,  0.016125964, -0.0660400018
     10, 0.0160760377, -0.0660400018
     11, 0.0160261132, -0.0660400018
     12, 0.0159761868, -0.0660400018
     13, 0.0159262605, -0.0660400018
     14,  0.015876336, -0.0660400018
     15, 0.0158264097, -0.0660400018
     16, 0.0157764852, -0.0660400018
     17, 0.0157265589, -0.0660400018
     18, 0.0156766344, -0.0660400018
     19,  0.015626708, -0.0660400018
     20, 0.0155767826, -0.0660400018
** ... 23681 like lines cut
*Element, type=CPS3
  1, 5832, 2721, 2618
  2, 1674, 4784, 4321
  3, 4317, 3717, 1532
  4, 2840, 6527, 2736
  5, 2136, 1988, 2335
  6, 3503, 5312, 5631
  7, 5086, 2426, 2011
  8, 2898, 5978, 2747
  9, 6104, 2774, 2892
 10, 3031, 6584, 2920
 11, 3356, 3292, 3260
 12, 4603, 4980, 4602
 13, 6747, 3363, 3403
 14, 5984, 6273, 2665
 15, 6141, 6406, 6121
 16, 3830, 1727, 4487
 17, 3925, 3924, 1364
 18,  700,    1,    5
 19, 4303, 3709, 1530
 20, 4268, 1640, 1486
** ... 792 like lines cut
*Element, type=CPS4R
 238,  698,  699,    6,    7
 239,    7,    8,  697,  698
 240,  694,  695,   10,   11
 241,   17,   18, 3545, 4136
 242,  685, 3924, 3925,  684
 243,  686,  687, 3922, 1503
 244, 3919, 1494,  690,  691
 245, 4135,   23,   24, 1578
 246, 4135, 4140, 1650, 1536
 247,   30,   31, 4131, 4132
 248, 4041, 1738, 1826, 4040
 249,   46, 4119, 4120,   45
 250,   46,   47, 1575, 4119
 251, 2140, 2141, 1706, 4756
 252, 1718, 1624, 4669, 4738
 253, 4030, 4031, 4512, 4513
 254, 4889, 4529, 4528, 2220
 255,  643, 4025, 4024,  642
 256, 5712, 2487, 3495, 5850
 257, 5474, 2434, 5401, 2754
** ... 22882 like lines cut
*Nset, nset=Set-1, generate
     1,  23701,      1
*Elset, elset=Set-1, generate
     1,  23714,      1
** Section: elastomer
*Solid Section, elset=Set-1, material=elastomer
,
*End Part
**  
*Part, name=plate
*Node
      1, 0.0399999991, 0.00625000009
      2, 0.0399999991, 0.0162499994
      3,           0., 0.0162499994
      4,           0., 0.00625000009
      5, 0.0799999982, 0.00625000009
      6, 0.0799999982, 0.0162499994
      7, 0.0399999991, 0.00724999979
      8, 0.0399999991, 0.00824999996
      9, 0.0399999991, 0.00925000012
     10, 0.0399999991, 0.0102500003
     11, 0.0399999991, 0.0112500004
     12, 0.0399999991, 0.0122499997
     13, 0.0399999991, 0.0132499998
     14, 0.0399999991,      0.01425
     15, 0.0399999991, 0.0152500002
     16, 0.0390000008, 0.0162499994
     17, 0.0379999988, 0.0162499994
     18, 0.0370000005, 0.0162499994
     19, 0.0359999985, 0.0162499994
     20, 0.0350000001, 0.0162499994
** ... 871 like lines cut
*Element, type=CPS4R
  1,   1,   7, 190, 102
  2,   7,   8, 191, 190
  3,   8,   9, 192, 191
  4,   9,  10, 193, 192
  5,  10,  11, 194, 193
  6,  11,  12, 195, 194
  7,  12,  13, 196, 195
  8,  13,  14, 197, 196
  9,  14,  15, 198, 197
 10,  15,   2,  16, 198
 11, 102, 190, 199, 101
 12, 190, 191, 200, 199
 13, 191, 192, 201, 200
 14, 192, 193, 202, 201
 15, 193, 194, 203, 202
 16, 194, 195, 204, 203
 17, 195, 196, 205, 204
 18, 196, 197, 206, 205
 19, 197, 198, 207, 206
 20, 198,  16,  17, 207
** ... 780 like lines cut
*Nset, nset=Set-1, generate
   1,  891,    1
*Elset, elset=Set-1, generate
   1,  800,    1
*Nset, nset=all_nodes, generate
   1,  891,    1
*Nset, nset=under_node
 1,
*Nset, nset=one_node
 2,
*Elset, elset="_top surrface_S2", internal, generate
  10,  400,   10
*Elset, elset="_top surrface_S4", internal, generate
 401,  791,   10
*Surface, type=ELEMENT, name="top surrface"
"_top surrface_S2", S2
"_top surrface_S4", S4
*Elset, elset="_bottom surface_S4", internal, generate
   1,  391,   10
*Elset, elset="_bottom surface_S2", internal, generate
 410,  800,   10
*Surface, type=ELEMENT, name="bottom surface"
"_bottom surface_S4", S4
"_bottom surface_S2", S2
** Section: steel
*Solid Section, elset=Set-1, material=steel
,
*End Part
**  
**
** ASSEMBLY
**
*Assembly, name=Assembly
**  
*Instance, name=plate-1, part=plate
*End Instance
**  
*Instance, name="layer 1/6-1", part="layer 1/6"
        0.04,      0.08429,           0.
*End Instance
**  
*Node
      1, 0.0399999991, 0.00625000009,           0.
*Node
      2,           0., 0.0162499994,           0.
*Nset, nset=Set-2, instance=plate-1
   1,   2,   3,   4,   5,   6,  16,  17,  18,  19,  20,  21,  22,  23,  24,  25
  26,  27,  28,  29,  30,  31,  32,  33,  34,  35,  36,  37,  38,  39,  40,  41
  42,  43,  44,  45,  46,  47,  48,  49,  50,  51,  52,  53,  54,  64,  65,  66
  67,  68,  69,  70,  71,  72,  73,  74,  75,  76,  77,  78,  79,  80,  81,  82
  83,  84,  85,  86,  87,  88,  89,  90,  91,  92,  93,  94,  95,  96,  97,  98
  99, 100, 101, 102, 103, 104, 105, 106, 107, 108, 109, 110, 111, 112, 113, 114
 115, 116, 117, 118, 119, 120, 121, 122, 123, 124, 125, 126, 127, 128, 129, 130
 131, 132, 133, 134, 135, 136, 137, 138, 139, 140, 141, 151, 152, 153, 154, 155
 156, 157, 158, 159, 160, 161, 162, 163, 164, 165, 166, 167, 168, 169, 170, 171
 172, 173, 174, 175, 176, 177, 178, 179, 180, 181, 182, 183, 184, 185, 186, 187
 188, 189
*Elset, elset=Set-2, instance=plate-1
   1,  10,  11,  20,  21,  30,  31,  40,  41,  50,  51,  60,  61,  70,  71,  80
  81,  90,  91, 100, 101, 110, 111, 120, 121, 130, 131, 140, 141, 150, 151, 160
 161, 170, 171, 180, 181, 190, 191, 200, 201, 210, 211, 220, 221, 230, 231, 240
 241, 250, 251, 260, 261, 270, 271, 280, 281, 290, 291, 300, 301, 310, 311, 320
 321, 330, 331, 340, 341, 350, 351, 360, 361, 370, 371, 380, 381, 390, 391, 400
 401, 410, 411, 420, 421, 430, 431, 440, 441, 450, 451, 460, 461, 470, 471, 480
 481, 490, 491, 500, 501, 510, 511, 520, 521, 530, 531, 540, 541, 550, 551, 560
 561, 570, 571, 580, 581, 590, 591, 600, 601, 610, 611, 620, 621, 630, 631, 640
 641, 650, 651, 660, 661, 670, 671, 680, 681, 690, 691, 700, 701, 710, 711, 720
 721, 730, 731, 740, 741, 750, 751, 760, 761, 770, 771, 780, 781, 790, 791, 800
*Nset, nset=Set-3, instance=plate-1
   2,   3,   6,  16,  17,  18,  19,  20,  21,  22,  23,  24,  25,  26,  27,  28
  29,  30,  31,  32,  33,  34,  35,  36,  37,  38,  39,  40,  41,  42,  43,  44
  45,  46,  47,  48,  49,  50,  51,  52,  53,  54, 151, 152, 153, 154, 155, 156
 157, 158, 159, 160, 161, 162, 163, 164, 165, 166, 167, 168, 169, 170, 171, 172
 173, 174, 175, 176, 177, 178, 179, 180, 181, 182, 183, 184, 185, 186, 187, 188
 189,
*Elset, elset=Set-3, instance=plate-1
  10,  20,  30,  40,  50,  60,  70,  80,  90, 100, 110, 120, 130, 140, 150, 160
 170, 180, 190, 200, 210, 220, 230, 240, 250, 260, 270, 280, 290, 300, 310, 320
 330, 340, 350, 360, 370, 380, 390, 400, 401, 411, 421, 431, 441, 451, 461, 471
 481, 491, 501, 511, 521, 531, 541, 551, 561, 571, 581, 591, 601, 611, 621, 631
 641, 651, 661, 671, 681, 691, 701, 711, 721, 731, 741, 751, 761, 771, 781, 791
*Nset, nset=Set-4, instance=plate-1
   2,   3,   6,  16,  17,  18,  19,  20,  21,  22,  23,  24,  25,  26,  27,  28
  29,  30,  31,  32,  33,  34,  35,  36,  37,  38,  39,  40,  41,  42,  43,  44
  45,  46,  47,  48,  49,  50,  51,  52,  53,  54, 151, 152, 153, 154, 155, 156
 157, 158, 159, 160, 161, 162, 163, 164, 165, 166, 167, 168, 169, 170, 171, 172
 173, 174, 175, 176, 177, 178, 179, 180, 181, 182, 183, 184, 185, 186, 187, 188
 189,
*Elset, elset=Set-4, instance=plate-1
  10,  20,  30,  40,  50,  60,  70,  80,  90, 100, 110, 120, 130, 140, 150, 160
 170, 180, 190, 200, 210, 220, 230, 240, 250, 260, 270, 280, 290, 300, 310, 320
 330, 340, 350, 360, 370, 380, 390, 400, 401, 411, 421, 431, 441, 451, 461, 471
 481, 491, 501, 511, 521, 531, 541, 551, 561, 571, 581, 591, 601, 611, 621, 631
 641, 651, 661, 671, 681, 691, 701, 711, 721, 731, 741, 751, 761, 771, 781, 791
*Nset, nset=Set-5, instance=plate-1
 1,
*Nset, nset=Set-6, instance=plate-1
 1,
*Nset, nset=Set-13, instance="layer 1/6-1"
 12983, 12984, 12985, 12986, 12987, 12988, 12989, 12990, 12991, 12992, 12993, 12994, 12995, 12996, 12997, 12998
 12999, 13000, 13001, 13002, 13003, 13004, 13005, 13006, 13007, 13008, 13009, 13010, 13067, 13068, 13069, 13070
 13071, 13072, 13073, 13074, 13075, 13076, 13077, 13078, 13079, 13080, 13081, 13082, 13083, 13084, 13085, 13086
 13087, 13088, 13089, 13090, 13091, 13092, 13093, 13094, 13095, 13096, 13098, 13099, 13100, 13110, 13111
*Elset, elset=Set-13, instance="layer 1/6-1"
 12741, 12748, 12754, 12755, 12763, 12766, 12782, 12783, 12795, 12800, 12801, 12802, 12803, 12805, 12806, 12842
 12863, 12868, 12870, 12891, 12903, 12987, 12990, 12991, 12992, 12993, 12994, 12995, 12996, 17074, 17083, 18413
 18423, 18470, 18472, 18473, 18479, 18484, 18496, 18497, 18499, 18504, 18510, 18529, 18562, 18563, 18567, 18570
 18573, 18576, 18577, 18580, 18666, 18667, 18668, 18669, 22609, 22610, 22623, 22624, 22625, 22626
*Nset, nset=Set-14, instance=plate-1
   2,   3,   6,  16,  17,  18,  19,  20,  21,  22,  23,  24,  25,  26,  27,  28
  29,  30,  31,  32,  33,  34,  35,  36,  37,  38,  39,  40,  41,  42,  43,  44
  45,  46,  47,  48,  49,  50,  51,  52,  53,  54, 151, 152, 153, 154, 155, 156
 157, 158, 159, 160, 161, 162, 163, 164, 165, 166, 167, 168, 169, 170, 171, 172
 173, 174, 175, 176, 177, 178, 179, 180, 181, 182, 183, 184, 185, 186, 187, 188
 189,
*Elset, elset=Set-14, instance=plate-1
  10,  20,  30,  40,  50,  60,  70,  80,  90, 100, 110, 120, 130, 140, 150, 160
 170, 180, 190, 200, 210, 220, 230, 240, 250, 260, 270, 280, 290, 300, 310, 320
 330, 340, 350, 360, 370, 380, 390, 400, 401, 411, 421, 431, 441, 451, 461, 471
 481, 491, 501, 511, 521, 531, 541, 551, 561, 571, 581, 591, 601, 611, 621, 631
 641, 651, 661, 671, 681, 691, 701, 711, 721, 731, 741, 751, 761, 771, 781, 791
*Nset, nset=Set-15, instance=plate-1
   2,   3,   6,  16,  17,  18,  19,  20,  21,  22,  23,  24,  25,  26,  27,  28
  29,  30,  31,  32,  33,  34,  35,  36,  37,  38,  39,  40,  41,  42,  43,  44
  45,  46,  47,  48,  49,  50,  51,  52,  53,  54, 151, 152, 153, 154, 155, 156
 157, 158, 159, 160, 161, 162, 163, 164, 165, 166, 167, 168, 169, 170, 171, 172
 173, 174, 175, 176, 177, 178, 179, 180, 181, 182, 183, 184, 185, 186, 187, 188
 189,
*Elset, elset=Set-15, instance=plate-1
  10,  20,  30,  40,  50,  60,  70,  80,  90, 100, 110, 120, 130, 140, 150, 160
 170, 180, 190, 200, 210, 220, 230, 240, 250, 260, 270, 280, 290, 300, 310, 320
 330, 340, 350, 360, 370, 380, 390, 400, 401, 411, 421, 431, 441, 451, 461, 471
 481, 491, 501, 511, 521, 531, 541, 551, 561, 571, 581, 591, 601, 611, 621, 631
 641, 651, 661, 671, 681, 691, 701, 711, 721, 731, 741, 751, 761, 771, 781, 791
*Nset, nset=Set-16, instance=plate-1
   2,   3,   6,  16,  17,  18,  19,  20,  21,  22,  23,  24,  25,  26,  27,  28
  29,  30,  31,  32,  33,  34,  35,  36,  37,  38,  39,  40,  41,  42,  43,  44
  45,  46,  47,  48,  49,  50,  51,  52,  53,  54, 151, 152, 153, 154, 155, 156
 157, 158, 159, 160, 161, 162, 163, 164, 165, 166, 167, 168, 169, 170, 171, 172
 173, 174, 175, 176, 177, 178, 179, 180, 181, 182, 183, 184, 185, 186, 187, 188
 189,
*Elset, elset=Set-16, instance=plate-1
  10,  20,  30,  40,  50,  60,  70,  80,  90, 100, 110, 120, 130, 140, 150, 160
 170, 180, 190, 200, 210, 220, 230, 240, 250, 260, 270, 280, 290, 300, 310, 320
 330, 340, 350, 360, 370, 380, 390, 400, 401, 411, 421, 431, 441, 451, 461, 471
 481, 491, 501, 511, 521, 531, 541, 551, 561, 571, 581, 591, 601, 611, 621, 631
 641, 651, 661, 671, 681, 691, 701, 711, 721, 731, 741, 751, 761, 771, 781, 791
*Nset, nset=Set-17, instance=plate-1
   2,   3,   6,  16,  17,  18,  19,  20,  21,  22,  23,  24,  25,  26,  27,  28
  29,  30,  31,  32,  33,  34,  35,  36,  37,  38,  39,  40,  41,  42,  43,  44
  45,  46,  47,  48,  49,  50,  51,  52,  53,  54, 151, 152, 153, 154, 155, 156
 157, 158, 159, 160, 161, 162, 163, 164, 165, 166, 167, 168, 169, 170, 171, 172
 173, 174, 175, 176, 177, 178, 179, 180, 181, 182, 183, 184, 185, 186, 187, 188
 189,
*Elset, elset=Set-17, instance=plate-1
  10,  20,  30,  40,  50,  60,  70,  80,  90, 100, 110, 120, 130, 140, 150, 160
 170, 180, 190, 200, 210, 220, 230, 240, 250, 260, 270, 280, 290, 300, 310, 320
 330, 340, 350, 360, 370, 380, 390, 400, 401, 411, 421, 431, 441, 451, 461, 471
 481, 491, 501, 511, 521, 531, 541, 551, 561, 571, 581, 591, 601, 611, 621, 631
 641, 651, 661, 671, 681, 691, 701, 711, 721, 731, 741, 751, 761, 771, 781, 791
*Nset, nset=Set-18, instance=plate-1
   2,   3,   6,  16,  17,  18,  19,  20,  21,  22,  23,  24,  25,  26,  27,  28
  29,  30,  31,  32,  33,  34,  35,  36,  37,  38,  39,  40,  41,  42,  43,  44
  45,  46,  47,  48,  49,  50,  51,  52,  53,  54, 151, 152, 153, 154, 155, 156
 157, 158, 159, 160, 161, 162, 163, 164, 165, 166, 167, 168, 169, 170, 171, 172
 173, 174, 175, 176, 177, 178, 179, 180, 181, 182, 183, 184, 185, 186, 187, 188
 189,
*Elset, elset=Set-18, instance=plate-1
  10,  20,  30,  40,  50,  60,  70,  80,  90, 100, 110, 120, 130, 140, 150, 160
 170, 180, 190, 200, 210, 220, 230, 240, 250, 260, 270, 280, 290, 300, 310, 320
 330, 340, 350, 360, 370, 380, 390, 400, 401, 411, 421, 431, 441, 451, 461, 471
 481, 491, 501, 511, 521, 531, 541, 551, 561, 571, 581, 591, 601, 611, 621, 631
 641, 651, 661, 671, 681, 691, 701, 711, 721, 731, 741, 751, 761, 771, 781, 791
*Nset, nset=Set-19, instance=plate-1
   2,   3,   6,  16,  17,  18,  19,  20,  21,  22,  23,  24,  25,  26,  27,  28
  29,  30,  31,  32,  33,  34,  35,  36,  37,  38,  39,  40,  41,  42,  43,  44
  45,  46,  47,  48,  49,  50,  51,  52,  53,  54, 151, 152, 153, 154, 155, 156
 157, 158, 159, 160, 161, 162, 163, 164, 165, 166, 167, 168, 169, 170, 171, 172
 173, 174, 175, 176, 177, 178, 179, 180, 181, 182, 183, 184, 185, 186, 187, 188
 189,
*Elset, elset=Set-19, instance=plate-1
  10,  20,  30,  40,  50,  60,  70,  80,  90, 100, 110, 120, 130, 140, 150, 160
 170, 180, 190, 200, 210, 220, 230, 240, 250, 260, 270, 280, 290, 300, 310, 320
 330, 340, 350, 360, 370, 380, 390, 400, 401, 411, 421, 431, 441, 451, 461, 471
 481, 491, 501, 511, 521, 531, 541, 551, 561, 571, 581, 591, 601, 611, 621, 631
 641, 651, 661, 671, 681, 691, 701, 711, 721, 731, 741, 751, 761, 771, 781, 791
*Nset, nset=Set-20, instance=plate-1
   2,   3,   6,  16,  17,  18,  19,  20,  21,  22,  23,  24,  25,  26,  27,  28
  29,  30,  31,  32,  33,  34,  35,  36,  37,  38,  39,  40,  41,  42,  43,  44
  45,  46,  47,  48,  49,  50,  51,  52,  53,  54, 151, 152, 153, 154, 155, 156
 157, 158, 159, 160, 161, 162, 163, 164, 165, 166, 167, 168, 169, 170, 171, 172
 173, 174, 175, 176, 177, 178, 179, 180, 181, 182, 183, 184, 185, 186, 187, 188
 189,
*Elset, elset=Set-20, instance=plate-1
  10,  20,  30,  40,  50,  60,  70,  80,  90, 100, 110, 120, 130, 140, 150, 160
 170, 180, 190, 200, 210, 220, 230, 240, 250, 260, 270, 280, 290, 300, 310, 320
 330, 340, 350, 360, 370, 380, 390, 400, 401, 411, 421, 431, 441, 451, 461, 471
 481, 491, 501, 511, 521, 531, 541, 551, 561, 571, 581, 591, 601, 611, 621, 631
 641, 651, 661, 671, 681, 691, 701, 711, 721, 731, 741, 751, 761, 771, 781, 791
*Nset, nset=Set-21, instance=plate-1
   2,   3,   6,  16,  17,  18,  19,  20,  21,  22,  23,  24,  25,  26,  27,  28
  29,  30,  31,  32,  33,  34,  35,  36,  37,  38,  39,  40,  41,  42,  43,  44
  45,  46,  47,  48,  49,  50,  51,  52,  53,  54, 151, 152, 153, 154, 155, 156
 157, 158, 159, 160, 161, 162, 163, 164, 165, 166, 167, 168, 169, 170, 171, 172
 173, 174, 175, 176, 177, 178, 179, 180, 181, 182, 183, 184, 185, 186, 187, 188
 189,
*Elset, elset=Set-21, instance=plate-1
  10,  20,  30,  40,  50,  60,  70,  80,  90, 100, 110, 120, 130, 140, 150, 160
 170, 180, 190, 200, 210, 220, 230, 240, 250, 260, 270, 280, 290, 300, 310, 320
 330, 340, 350, 360, 370, 380, 390, 400, 401, 411, 421, 431, 441, 451, 461, 471
 481, 491, 501, 511, 521, 531, 541, 551, 561, 571, 581, 591, 601, 611, 621, 631
 641, 651, 661, 671, 681, 691, 701, 711, 721, 731, 741, 751, 761, 771, 781, 791
*Nset, nset=Set-22, instance=plate-1
   2,   3,   6,  16,  17,  18,  19,  20,  21,  22,  23,  24,  25,  26,  27,  28
  29,  30,  31,  32,  33,  34,  35,  36,  37,  38,  39,  40,  41,  42,  43,  44
  45,  46,  47,  48,  49,  50,  51,  52,  53,  54, 151, 152, 153, 154, 155, 156
 157, 158, 159, 160, 161, 162, 163, 164, 165, 166, 167, 168, 169, 170, 171, 172
 173, 174, 175, 176, 177, 178, 179, 180, 181, 182, 183, 184, 185, 186, 187, 188
 189,
*Elset, elset=Set-22, instance=plate-1
  10,  20,  30,  40,  50,  60,  70,  80,  90, 100, 110, 120, 130, 140, 150, 160
 170, 180, 190, 200, 210, 220, 230, 240, 250, 260, 270, 280, 290, 300, 310, 320
 330, 340, 350, 360, 370, 380, 390, 400, 401, 411, 421, 431, 441, 451, 461, 471
 481, 491, 501, 511, 521, 531, 541, 551, 561, 571, 581, 591, 601, 611, 621, 631
 641, 651, 661, 671, 681, 691, 701, 711, 721, 731, 741, 751, 761, 771, 781, 791
*Nset, nset=Set-23, instance=plate-1
   2,   3,   6,  16,  17,  18,  19,  20,  21,  22,  23,  24,  25,  26,  27,  28
  29,  30,  31,  32,  33,  34,  35,  36,  37,  38,  39,  40,  41,  42,  43,  44
  45,  46,  47,  48,  49,  50,  51,  52,  53,  54, 151, 152, 153, 154, 155, 156
 157, 158, 159, 160, 161, 162, 163, 164, 165, 166, 167, 168, 169, 170, 171, 172
 173, 174, 175, 176, 177, 178, 179, 180, 181, 182, 183, 184, 185, 186, 187, 188
 189,
*Elset, elset=Set-23, instance=plate-1
  10,  20,  30,  40,  50,  60,  70,  80,  90, 100, 110, 120, 130, 140, 150, 160
 170, 180, 190, 200, 210, 220, 230, 240, 250, 260, 270, 280, 290, 300, 310, 320
 330, 340, 350, 360, 370, 380, 390, 400, 401, 411, 421, 431, 441, 451, 461, 471
 481, 491, 501, 511, 521, 531, 541, 551, 561, 571, 581, 591, 601, 611, 621, 631
 641, 651, 661, 671, 681, 691, 701, 711, 721, 731, 741, 751, 761, 771, 781, 791
*Nset, nset=Set-24, instance=plate-1
   2,   3,   6,  16,  17,  18,  19,  20,  21,  22,  23,  24,  25,  26,  27,  28
  29,  30,  31,  32,  33,  34,  35,  36,  37,  38,  39,  40,  41,  42,  43,  44
  45,  46,  47,  48,  49,  50,  51,  52,  53,  54, 151, 152, 153, 154, 155, 156
 157, 158, 159, 160, 161, 162, 163, 164, 165, 166, 167, 168, 169, 170, 171, 172
 173, 174, 175, 176, 177, 178, 179, 180, 181, 182, 183, 184, 185, 186, 187, 188
 189,
*Elset, elset=Set-24, instance=plate-1
  10,  20,  30,  40,  50,  60,  70,  80,  90, 100, 110, 120, 130, 140, 150, 160
 170, 180, 190, 200, 210, 220, 230, 240, 250, 260, 270, 280, 290, 300, 310, 320
 330, 340, 350, 360, 370, 380, 390, 400, 401, 411, 421, 431, 441, 451, 461, 471
 481, 491, 501, 511, 521, 531, 541, 551, 561, 571, 581, 591, 601, 611, 621, 631
 641, 651, 661, 671, 681, 691, 701, 711, 721, 731, 741, 751, 761, 771, 781, 791
*Nset, nset=Set-25, instance=plate-1
   2,   3,   6,  16,  17,  18,  19,  20,  21,  22,  23,  24,  25,  26,  27,  28
  29,  30,  31,  32,  33,  34,  35,  36,  37,  38,  39,  40,  41,  42,  43,  44
  45,  46,  47,  48,  49,  50,  51,  52,  53,  54, 151, 152, 153, 154, 155, 156
 157, 158, 159, 160, 161, 162, 163, 164, 165, 166, 167, 168, 169, 170, 171, 172
 173, 174, 175, 176, 177, 178, 179, 180, 181, 182, 183, 184, 185, 186, 187, 188
 189,
*Elset, elset=Set-25, instance=plate-1
  10,  20,  30,  40,  50,  60,  70,  80,  90, 100, 110, 120, 130, 140, 150, 160
 170, 180, 190, 200, 210, 220, 230, 240, 250, 260, 270, 280, 290, 300, 310, 320
 330, 340, 350, 360, 370, 380, 390, 400, 401, 411, 421, 431, 441, 451, 461, 471
 481, 491, 501, 511, 521, 531, 541, 551, 561, 571, 581, 591, 601, 611, 621, 631
 641, 651, 661, 671, 681, 691, 701, 711, 721, 731, 741, 751, 761, 771, 781, 791
*Nset, nset=Set-26, instance=plate-1
   2,   3,   6,  16,  17,  18,  19,  20,  21,  22,  23,  24,  25,  26,  27,  28
  29,  30,  31,  32,  33,  34,  35,  36,  37,  38,  39,  40,  41,  42,  43,  44
  45,  46,  47,  48,  49,  50,  51,  52,  53,  54, 151, 152, 153, 154, 155, 156
 157, 158, 159, 160, 161, 162, 163, 164, 165, 166, 167, 168, 169, 170, 171, 172
 173, 174, 175, 176, 177, 178, 179, 180, 181, 182, 183, 184, 185, 186, 187, 188
 189,
*Elset, elset=Set-26, instance=plate-1
  10,  20,  30,  40,  50,  60,  70,  80,  90, 100, 110, 120, 130, 140, 150, 160
 170, 180, 190, 200, 210, 220, 230, 240, 250, 260, 270, 280, 290, 300, 310, 320
 330, 340, 350, 360, 370, 380, 390, 400, 401, 411, 421, 431, 441, 451, 461, 471
 481, 491, 501, 511, 521, 531, 541, 551, 561, 571, 581, 591, 601, 611, 621, 631
 641, 651, 661, 671, 681, 691, 701, 711, 721, 731, 741, 751, 761, 771, 781, 791
*Nset, nset=Set-27, instance=plate-1
   2,   3,   6,  16,  17,  18,  19,  20,  21,  22,  23,  24,  25,  26,  27,  28
  29,  30,  31,  32,  33,  34,  35,  36,  37,  38,  39,  40,  41,  42,  43,  44
  45,  46,  47,  48,  49,  50,  51,  52,  53,  54, 151, 152, 153, 154, 155, 156
 157, 158, 159, 160, 161, 162, 163, 164, 165, 166, 167, 168, 169, 170, 171, 172
 173, 174, 175, 176, 177, 178, 179, 180, 181, 182, 183, 184, 185, 186, 187, 188
 189,
*Elset, elset=Set-27, instance=plate-1
  10,  20,  30,  40,  50,  60,  70,  80,  90, 100, 110, 120, 130, 140, 150, 160
 170, 180, 190, 200, 210, 220, 230, 240, 250, 260, 270, 280, 290, 300, 310, 320
 330, 340, 350, 360, 370, 380, 390, 400, 401, 411, 421, 431, 441, 451, 461, 471
 481, 491, 501, 511, 521, 531, 541, 551, 561, 571, 581, 591, 601, 611, 621, 631
 641, 651, 661, 671, 681, 691, 701, 711, 721, 731, 741, 751, 761, 771, 781, 791
*Nset, nset=Set-28, instance=plate-1
   2,   3,   6,  16,  17,  18,  19,  20,  21,  22,  23,  24,  25,  26,  27,  28
  29,  30,  31,  32,  33,  34,  35,  36,  37,  38,  39,  40,  41,  42,  43,  44
  45,  46,  47,  48,  49,  50,  51,  52,  53,  54, 151, 152, 153, 154, 155, 156
 157, 158, 159, 160, 161, 162, 163, 164, 165, 166, 167, 168, 169, 170, 171, 172
 173, 174, 175, 176, 177, 178, 179, 180, 181, 182, 183, 184, 185, 186, 187, 188
 189,
*Elset, elset=Set-28, instance=plate-1
  10,  20,  30,  40,  50,  60,  70,  80,  90, 100, 110, 120, 130, 140, 150, 160
 170, 180, 190, 200, 210, 220, 230, 240, 250, 260, 270, 280, 290, 300, 310, 320
 330, 340, 350, 360, 370, 380, 390, 400, 401, 411, 421, 431, 441, 451, 461, 471
 481, 491, 501, 511, 521, 531, 541, 551, 561, 571, 581, 591, 601, 611, 621, 631
 641, 651, 661, 671, 681, 691, 701, 711, 721, 731, 741, 751, 761, 771, 781, 791
*Nset, nset=Set-29, instance=plate-1
   2,   3,   6,  16,  17,  18,  19,  20,  21,  22,  23,  24,  25,  26,  27,  28
  29,  30,  31,  32,  33,  34,  35,  36,  37,  38,  39,  40,  41,  42,  43,  44
  45,  46,  47,  48,  49,  50,  51,  52,  53,  54, 151, 152, 153, 154, 155, 156
 157, 158, 159, 160, 161, 162, 163, 164, 165, 166, 167, 168, 169, 170, 171, 172
 173, 174, 175, 176, 177, 178, 179, 180, 181, 182, 183, 184, 185, 186, 187, 188
 189,
*Elset, elset=Set-29, instance=plate-1
  10,  20,  30,  40,  50,  60,  70,  80,  90, 100, 110, 120, 130, 140, 150, 160
 170, 180, 190, 200, 210, 220, 230, 240, 250, 260, 270, 280, 290, 300, 310, 320
 330, 340, 350, 360, 370, 380, 390, 400, 401, 411, 421, 431, 441, 451, 461, 471
 481, 491, 501, 511, 521, 531, 541, 551, 561, 571, 581, 591, 601, 611, 621, 631
 641, 651, 661, 671, 681, 691, 701, 711, 721, 731, 741, 751, 761, 771, 781, 791
*Nset, nset=Set-30, instance=plate-1
   2,   3,   6,  16,  17,  18,  19,  20,  21,  22,  23,  24,  25,  26,  27,  28
  29,  30,  31,  32,  33,  34,  35,  36,  37,  38,  39,  40,  41,  42,  43,  44
  45,  46,  47,  48,  49,  50,  51,  52,  53,  54, 151, 152, 153, 154, 155, 156
 157, 158, 159, 160, 161, 162, 163, 164, 165, 166, 167, 168, 169, 170, 171, 172
 173, 174, 175, 176, 177, 178, 179, 180, 181, 182, 183, 184, 185, 186, 187, 188
 189,
*Elset, elset=Set-30, instance=plate-1
  10,  20,  30,  40,  50,  60,  70,  80,  90, 100, 110, 120, 130, 140, 150, 160
 170, 180, 190, 200, 210, 220, 230, 240, 250, 260, 270, 280, 290, 300, 310, 320
 330, 340, 350, 360, 370, 380, 390, 400, 401, 411, 421, 431, 441, 451, 461, 471
 481, 491, 501, 511, 521, 531, 541, 551, 561, 571, 581, 591, 601, 611, 621, 631
 641, 651, 661, 671, 681, 691, 701, 711, 721, 731, 741, 751, 761, 771, 781, 791
*Nset, nset=Set-31, instance=plate-1
   2,   3,   6,  16,  17,  18,  19,  20,  21,  22,  23,  24,  25,  26,  27,  28
  29,  30,  31,  32,  33,  34,  35,  36,  37,  38,  39,  40,  41,  42,  43,  44
  45,  46,  47,  48,  49,  50,  51,  52,  53,  54, 151, 152, 153, 154, 155, 156
 157, 158, 159, 160, 161, 162, 163, 164, 165, 166, 167, 168, 169, 170, 171, 172
 173, 174, 175, 176, 177, 178, 179, 180, 181, 182, 183, 184, 185, 186, 187, 188
 189,
*Elset, elset=Set-31, instance=plate-1
  10,  20,  30,  40,  50,  60,  70,  80,  90, 100, 110, 120, 130, 140, 150, 160
 170, 180, 190, 200, 210, 220, 230, 240, 250, 260, 270, 280, 290, 300, 310, 320
 330, 340, 350, 360, 370, 380, 390, 400, 401, 411, 421, 431, 441, 451, 461, 471
 481, 491, 501, 511, 521, 531, 541, 551, 561, 571, 581, 591, 601, 611, 621, 631
 641, 651, 661, 671, 681, 691, 701, 711, 721, 731, 741, 751, 761, 771, 781, 791
*Nset, nset=Set-32, instance=plate-1
   2,   3,   6,  16,  17,  18,  19,  20,  21,  22,  23,  24,  25,  26,  27,  28
  29,  30,  31,  32,  33,  34,  35,  36,  37,  38,  39,  40,  41,  42,  43,  44
  45,  46,  47,  48,  49,  50,  51,  52,  53,  54, 151, 152, 153, 154, 155, 156
 157, 158, 159, 160, 161, 162, 163, 164, 165, 166, 167, 168, 169, 170, 171, 172
 173, 174, 175, 176, 177, 178, 179, 180, 181, 182, 183, 184, 185, 186, 187, 188
 189,
*Elset, elset=Set-32, instance=plate-1
  10,  20,  30,  40,  50,  60,  70,  80,  90, 100, 110, 120, 130, 140, 150, 160
 170, 180, 190, 200, 210, 220, 230, 240, 250, 260, 270, 280, 290, 300, 310, 320
 330, 340, 350, 360, 370, 380, 390, 400, 401, 411, 421, 431, 441, 451, 461, 471
 481, 491, 501, 511, 521, 531, 541, 551, 561, 571, 581, 591, 601, 611, 621, 631
 641, 651, 661, 671, 681, 691, 701, 711, 721, 731, 741, 751, 761, 771, 781, 791
*Nset, nset=m_Set-8, instance=plate-1
 1,
*Nset, nset=m_Set-10
 2,
*Elset, elset=_m_Surf-1_S2, internal, instance=plate-1, generate
  10,  400,   10
*Elset, elset=_m_Surf-1_S4, internal, instance=plate-1, generate
 401,  791,   10
*Surface, type=ELEMENT, name=m_Surf-1
_m_Surf-1_S2, S2
_m_Surf-1_S4, S4
*Elset, elset=_m_Surf-4_S2, internal, instance=plate-1, generate
  10,  400,   10
*Elset, elset=_m_Surf-4_S4, internal, instance=plate-1, generate
 401,  791,   10
*Surface, type=ELEMENT, name=m_Surf-4
_m_Surf-4_S2, S2
_m_Surf-4_S4, S4
*Elset, elset=_m_Surf-10_S2, internal, instance=plate-1, generate
  10,  400,   10
*Elset, elset=_m_Surf-10_S4, internal, instance=plate-1, generate
 401,  791,   10
*Surface, type=ELEMENT, name=m_Surf-10
_m_Surf-10_S2, S2
_m_Surf-10_S4, S4
*Elset, elset=_m_Surf-12_S3, internal, instance=plate-1, generate
 391,  400,    1
*Surface, type=ELEMENT, name=m_Surf-12
_m_Surf-12_S3, S3
*Elset, elset=_s_Surf-3_S2, internal, instance=plate-1, generate
  10,  400,   10
*Elset, elset=_s_Surf-3_S4, internal, instance=plate-1, generate
 401,  791,   10
*Surface, type=ELEMENT, name=s_Surf-3
_s_Surf-3_S2, S2
_s_Surf-3_S4, S4
*Elset, elset=_s_Surf-4_S2, internal, instance=plate-1, generate
 410,  800,   10
*Elset, elset=_s_Surf-4_S4, internal, instance=plate-1, generate
   1,  391,   10
*Surface, type=ELEMENT, name=s_Surf-4
_s_Surf-4_S2, S2
_s_Surf-4_S4, S4
*Elset, elset=_s_Surf-8_S2, internal, instance=plate-1, generate
  10,  400,   10
*Elset, elset=_s_Surf-8_S4, internal, instance=plate-1, generate
 401,  791,   10
*Surface, type=ELEMENT, name=s_Surf-8
_s_Surf-8_S2, S2
_s_Surf-8_S4, S4
*Elset, elset=_s_Surf-10_S3, internal, instance=plate-1
 391, 392, 393, 394, 395, 396, 397, 398, 399, 400, 791, 792, 793, 794, 795, 796
 797, 798, 799, 800
*Surface, type=ELEMENT, name=s_Surf-10
_s_Surf-10_S3, S3
*Elset, elset=_s_Surf-12_S3, internal, instance=plate-1, generate
 791,  800,    1
*Surface, type=ELEMENT, name=s_Surf-12
_s_Surf-12_S3, S3
** Constraint: Top-Bottom
*Tie, name=Top-Bottom, adjust=yes
plate-1."top surrface", plate-1."bottom surface"
*Elset, elset="__general contact_gcs0_10_S1", internal, instance="layer 1/6-1"
   18,  238,  240,  243,  557,  592,  987,  988,  989, 1107, 1186, 1198, 1266, 1331, 1428, 1432
 1436, 1439, 1444, 1450, 1456, 1460, 1469, 1659, 1665, 1674, 1698, 1699, 1713, 1755, 1767, 1776
 1780, 1786, 1864, 1871, 1922, 2580, 4381, 4383
*Elset, elset="__general contact_gcs0_10_S3", internal, instance="layer 1/6-1"
  239,  244,  302,  475,  487,  506,  531,  542,  586,  599,  630,  973,  974, 1072, 1157, 1177
 1178, 1249, 1253, 1327, 1398, 1412, 1413, 1419, 1459, 1471, 1472, 1475, 1478, 1562, 1657, 1661
 1667, 1669, 1676, 1678, 1686, 1692, 1707, 1723, 1731, 1738, 1746, 1748, 1762, 1771, 1777, 1778
 1779, 1783, 1789, 1808, 1820, 1826, 2012, 2099, 2478, 4344, 4353, 4374, 4431, 4436
*Elset, elset="__general contact_gcs0_10_S4", internal, instance="layer 1/6-1"
  242,  255,  470,  474,  483,  488,  503,  507,  509,  518,  533,  535,  537,  556,  591,  595
  603,  606,  620,  621,  972, 1082, 1151, 1156, 1231, 1261, 1300, 1319, 1320, 1408, 1409, 1410
 1411, 1420, 1422, 1423, 1427, 1429, 1438, 1440, 1442, 1443, 1446, 1452, 1457, 1462, 1463, 1465
 1473, 1474, 1476, 1479, 1663, 1670, 1671, 1672, 1683, 1685, 1688, 1691, 1694, 1695, 1704, 1712
 1714, 1716, 1719, 1722, 1725, 1733, 1741, 1742, 1752, 1757, 1761, 1764, 1765, 1772, 1775, 1811
 1816, 1850, 1881, 1945, 2013, 2319, 2409, 4081, 4324, 4332, 4335, 4350, 4354, 4372, 4375, 4442
 4449, 4450
*Elset, elset="__general contact_gcs0_10_S2", internal, instance="layer 1/6-1"
  300,  301,  485,  502,  508,  517,  536,  551,  573,  575,  579,  580,  585,  596,  608,  615
  823,  824,  909,  984,  985, 1071, 1075, 1101, 1133, 1150, 1187, 1226, 1239, 1264, 1265, 1330
 1414, 1415, 1421, 1424, 1430, 1431, 1434, 1435, 1448, 1449, 1458, 1461, 1467, 1468, 1653, 1654
 1656, 1658, 1668, 1673, 1675, 1677, 1680, 1687, 1693, 1696, 1700, 1702, 1705, 1710, 1715, 1718
 1721, 1724, 1726, 1728, 1729, 1734, 1739, 1743, 1745, 1751, 1756, 1759, 1763, 1766, 1773, 1781
 1782, 1785, 1787, 1823, 1855, 1876, 1909, 2009, 2016, 2581, 3148, 3284, 4069, 4071, 4076, 4296
 4297, 4303, 4304, 4307, 4309, 4310, 4313, 4321, 4322, 4323, 4327, 4329, 4334, 4341, 4345, 4347
 4348, 4356, 4365, 4367, 4376, 4378, 4421, 4432, 4433, 4434, 4438, 4439, 4440, 4441, 4447, 4448
 4451, 4452, 4453
*Surface, type=ELEMENT, name="_general contact_gcs0_10", internal
"__general contact_gcs0_10_S1", S1
"__general contact_gcs0_10_S3", S3
"__general contact_gcs0_10_S4", S4
"__general contact_gcs0_10_S2", S2
*Elset, elset="__general contact_gcs0_12_S2", internal, instance="layer 1/6-1"
  6291,  6653,  6703,  6739,  6807,  6825,  7375,  7572,  7664,  7667,  7668,  7692,  7697,  7700,  7710,  7721
  7724,  7932,  7951,  7959,  7965,  7978,  8030,  8123,  8828, 10196, 10694
*Elset, elset="__general contact_gcs0_12_S3", internal, instance="layer 1/6-1"
  6536,  6609,  6610,  6614,  6642,  6648,  6704,  6712,  6727,  6770,  6830,  6831,  6832,  6840,  6841,  6846
  6847,  6849,  6864,  7112,  7315,  7316,  7318,  7573,  7598,  7599,  7658,  7659,  7663,  7666,  7673,  7674
  7675,  7682,  7684,  7686,  7689,  7691,  7696,  7701,  7703,  7704,  7705,  7715,  7716,  7723,  7726,  7729
  7731,  7734,  7751,  7936,  7943,  7948,  7949,  7969,  7971,  7976,  7981,  7995,  7999,  8000,  8004,  8011
  8028,  8037,  8039,  8041,  8046,  8049,  8050,  8069,  8115,  8120,  8121,  8211,  8295,  8356,  8682,  8991
 10623, 10630, 10634, 10636, 10640, 10656, 10657, 10660, 10662, 10666, 10670, 10680, 10682, 10684, 10689, 10693
 10697, 10700, 10702, 10705, 10708, 10719, 10722, 10725, 10741, 10744, 10749, 10751, 10753, 10756, 10761
*Elset, elset="__general contact_gcs0_12_S1", internal, instance="layer 1/6-1"
  6537,  6611,  6613,  6639,  6641,  6643,  6647,  6650,  6699,  6700,  6701,  6702,  6709,  6710,  6717,  6724
  6730,  6736,  6767,  6768,  6780,  6808,  6809,  6810,  6827,  6828,  6829,  6837,  6842,  6843,  6852,  6858
  6859,  6865,  7111,  7113,  7181,  7411,  7412,  7457,  7458,  7510,  7574,  7589,  7660,  7662,  7669,  7671
  7672,  7676,  7678,  7679,  7680,  7685,  7688,  7695,  7699,  7709,  7712,  7713,  7714,  7717,  7718,  7725
  7728,  7730,  7733,  7735,  7747,  7933,  7935,  7937,  7939,  7940,  7941,  7942,  7946,  7953,  7954,  7955
  7957,  7958,  7960,  7961,  7964,  7966,  7970,  7973,  7974,  7977,  7984,  7985,  7986,  7988,  7989,  7992
  7993,  7994,  7996,  8001,  8002,  8003,  8010,  8013,  8014,  8015,  8019,  8020,  8023,  8024,  8027,  8031
  8035,  8036,  8038,  8047,  8070,  8071,  8119,  8132,  8135,  8181,  8183,  8203,  8210,  8271,  8444,  8445
  8884, 10316, 10500, 10501, 10627, 10637, 10638, 10641, 10642, 10649, 10659, 10686, 10688, 10692, 10712, 10715
 10718, 10739, 10740, 10758, 10764
*Elset, elset="__general contact_gcs0_12_S4", internal, instance="layer 1/6-1"
  6612,  6655,  6707,  6715,  6718,  6729,  6771,  6773,  6779,  6826,  6833,  6836,  6839,  6844,  6854,  6857
  6867,  6973,  7600,  7665,  7670,  7683,  7698,  7702,  7708,  7719,  7727,  7931,  7938,  7967,  7980,  8012
  8022,  8034,  8043,  8044,  8048,  8077,  8125,  8151, 10622, 10633, 10679, 10681
*Surface, type=ELEMENT, name="_general contact_gcs0_12", internal
"__general contact_gcs0_12_S2", S2
"__general contact_gcs0_12_S3", S3
"__general contact_gcs0_12_S4", S4
"__general contact_gcs0_12_S1", S1
*Elset, elset="__general contact_gcs0_14_S4", internal, instance="layer 1/6-1"
 12741, 12800, 12801, 12805, 12806, 12842, 12993
*Elset, elset="__general contact_gcs0_14_S2", internal, instance="layer 1/6-1"
 12748, 12763, 12783, 12795, 12802, 12863, 12870, 12891, 12991, 12992, 12994, 12995, 17083
*Elset, elset="__general contact_gcs0_14_S1", internal, instance="layer 1/6-1"
 12754, 12803, 12903, 12987, 12990, 12996, 17074
*Elset, elset="__general contact_gcs0_14_S3", internal, instance="layer 1/6-1"
 12755, 12766, 12782, 12868
*Surface, type=ELEMENT, name="_general contact_gcs0_14", internal
"__general contact_gcs0_14_S4", S4
"__general contact_gcs0_14_S2", S2
"__general contact_gcs0_14_S1", S1
"__general contact_gcs0_14_S3", S3
*Elset, elset="__general contact_gcs0_16_S4", internal, instance="layer 1/6-1"
 12774, 12809, 12824, 12832, 12833, 12835
*Elset, elset="__general contact_gcs0_16_S2", internal, instance="layer 1/6-1"
 12776, 12810, 12811, 12819, 12999, 13001, 13002
*Elset, elset="__general contact_gcs0_16_S1", internal, instance="layer 1/6-1"
 12817, 12821, 12822, 12831, 13000, 13004, 13194, 13527
*Elset, elset="__general contact_gcs0_16_S3", internal, instance="layer 1/6-1"
 13321,
*Surface, type=ELEMENT, name="_general contact_gcs0_16", internal
"__general contact_gcs0_16_S4", S4
"__general contact_gcs0_16_S2", S2
"__general contact_gcs0_16_S1", S1
"__general contact_gcs0_16_S3", S3
*Elset, elset="__general contact_gcs0_17_S2", internal, instance="layer 1/6-1"
 18316, 18436, 18840, 22617
*Elset, elset="__general contact_gcs0_17_S3", internal, instance="layer 1/6-1"
 18434, 18437, 18451, 18457, 18463, 18662, 22619
*Elset, elset="__general contact_gcs0_17_S4", internal, instance="layer 1/6-1"
 18442, 18513
*Elset, elset="__general contact_gcs0_17_S1", internal, instance="layer 1/6-1"
 18460, 18467, 18515, 18539, 18542, 18663, 18664, 18676, 22618
*Surface, type=ELEMENT, name="_general contact_gcs0_17", internal
"__general contact_gcs0_17_S2", S2
"__general contact_gcs0_17_S3", S3
"__general contact_gcs0_17_S4", S4
"__general contact_gcs0_17_S1", S1
*Elset, elset="__general contact_gcs0_19_S3", internal, instance="layer 1/6-1"
 18413, 18423, 18470, 18472, 18473, 18484, 18497, 18499, 18510, 18562, 18563, 18577, 22626
*Elset, elset="__general contact_gcs0_19_S1", internal, instance="layer 1/6-1"
 18479, 18504, 18529, 18567, 18570, 18573, 18580, 18668, 18669, 22609, 22610, 22623, 22624, 22625
*Elset, elset="__general contact_gcs0_19_S4", internal, instance="layer 1/6-1"
 18496, 18576
*Elset, elset="__general contact_gcs0_19_S2", internal, instance="layer 1/6-1"
 18666, 18667
*Surface, type=ELEMENT, name="_general contact_gcs0_19", internal
"__general contact_gcs0_19_S3", S3
"__general contact_gcs0_19_S1", S1
"__general contact_gcs0_19_S4", S4
"__general contact_gcs0_19_S2", S2
*End Assembly
** 
** MATERIALS
** 
*Material, name=elastomer
*Density
1175.,
*Hyperelastic, neo hooke
<C10>,0.
*Material, name=steel
*Density
7850.,
*Elastic
 2.1e+11, 0.3
** 
** INTERACTION PROPERTIES
** 
*Surface Interaction, name=frict
1.,
*Friction, slip tolerance=0.005
 0.3,
** 
** BOUNDARY CONDITIONS
** 
** Name: fix_all_nodes Type: Symmetry/Antisymmetry/Encastre
*Boundary
plate-1.all_nodes, XSYMM
** Name: fix_all_sides Type: Symmetry/Antisymmetry/Encastre
*Boundary
Set-2, XSYMM
** Name: fix_inner_layer Type: Symmetry/Antisymmetry/Encastre
*Boundary
Set-13, ENCASTRE
** 
** INTERACTIONS
** 
** Interaction: general contact
*Contact
*Contact Inclusions, ALL EXTERIOR
*Contact Property Assignment
 ,  , frict
*Surface Property Assignment, property=GEOMETRIC CORRECTION
"_general contact_gcs0_10", Circumferential, 0.04, 0.08429
"_general contact_gcs0_12", Circumferential, 0.04, 0.08429
"_general contact_gcs0_14", Circumferential, 0.04, 0.08429
"_general contact_gcs0_16", Circumferential, 0.04, 0.08429
"_general contact_gcs0_17", Circumferential, 0.04, 0.08429
"_general contact_gcs0_19", Circumferential, 0.04, 0.08429
** ----------------------------------------------------------------
** 
** STEP: press
** 
*Step, name=press, nlgeom=YES
*Static
0.01, 1., 1e-05, 0.01
** 
** BOUNDARY CONDITIONS
** 
** Name: press Type: Displacement/Rotation
*Boundary
Set-32, 1, 1
Set-32, 2, 2, 0.0015
Set-32, 6, 6
** 
** OUTPUT REQUESTS
** 
*Restart, write, frequency=0
** 
** FIELD OUTPUT: F-Output-1
** 
*Output, field, variable=PRESELECT
** 
** HISTORY OUTPUT: H-Output-3
** 
*Output, history
*Contact Output
CAREA, CFT2
** 
** HISTORY OUTPUT: H-Output-1
** 
*Node Output, nset=plate-1.one_node
U2, 
** 
** HISTORY OUTPUT: H-Output-2
** 
*Node Output, nset=plate-1.under_node
CF2, RF2, U2
*End Step
