*Heading
** Job name: standard_NH1 Model name: Model-1
** Generated by: Abaqus/CAE 2022
*Preprint, echo=NO, model=NO, history=NO, contact=NO
**
*PARAMETER
C10=
C01=
** PARTS
**
*Part, name="layer 1/6"
*Node
      1, 0.0233238079, -0.0659999996
      2,           0., -0.0659999996
      3,           0., -0.0700000003
      4, -0.0233238079, -0.0659999996
      5,           0., -0.0599999987
      6, -0.0299999993, -0.0519615225
      7, -0.0350000001, -0.0606217794
      8, 0.0350000001, -0.0606217794
      9, 0.0299999993, -0.0519615225
     10, 0.0232737567, -0.0659999996
     11, 0.0232237056, -0.0659999996
     12, 0.0231736545, -0.0659999996
     13, 0.0231236033, -0.0659999996
     14, 0.0230735522, -0.0659999996
     15,  0.023023501, -0.0659999996
     16, 0.0229734499, -0.0659999996
     17, 0.0229233988, -0.0659999996
     18, 0.0228733476, -0.0659999996
     19, 0.0228232965, -0.0659999996
     20, 0.0227732453, -0.0659999996
** ... 51036 like lines cut
*Element, type=CPS3
  1, 10285,  9403,  2565
  2, 11523,  3536,  3537
  3, 13586,  5544, 13430
  4,  9331,  2787,  9332
  5, 17995,  8677, 17994
  6,  7263, 16361,  7616
  7, 17144, 17092, 16882
  8,  9794,  2846,  2699
  9, 12084, 11346,  3833
 10, 11120, 11596,  3988
 11,  9642,  9078,  9077
 12, 10507, 10881,  2825
 13,  2356,  7546,  7698
 14, 11250, 11122,  3734
 15, 16722,  8335,  7878
 16, 18094,  8294, 18092
 17, 11831,  5327, 11673
 18, 11308, 10453, 10697
 19, 11258,  2552,  4912
 20, 15909,  7444,  7671
** ... 1730 like lines cut
*Element, type=CPS4R
  599,    10,    11,  1027,  1028
  600,  1024,  1025,    13,    14
  601,  9061,  9062,  1019,  1020
  602,  9078,  9642,  3333,  9079
  603,  2661,  2644,  9876,  2915
  604,  3939,  3443,  3520,  9347
  605, 10799,  2971, 10798,  2738
  606, 10893, 11007,  3172, 10892
  607, 10197, 10196,  9358,  4939
  608, 10032,  2655, 10176, 10177
  609,  9953, 10568,  2990,  2568
  610,  2543,  3045, 10805,  2820
  611,  3827, 10357,  3861,  9384
  612,  3139,  9999, 10001,  2802
  613,  9983,  2822, 10003,  2654
  614, 10280,  2986, 11297,  3126
  615,  3126, 11297,  3823, 12378
  616,  4981, 10303,  3143,  9407
  617, 10007,  3145, 10005, 10004
  618,  2731, 10872,  2964, 10321
** ... 49627 like lines cut
*Nset, nset=Set-1, generate
     1,  51056,      1
*Elset, elset=Set-1, generate
     1,  51397,      1
** Section: elastomer
*Solid Section, elset=Set-1, material=elastomer
,
*End Part
**  
*Part, name=plate
*Node
      1, 0.0399999991, 0.00625000009
      2, 0.0399999991, 0.0162499994
      3,           0., 0.0162499994
      4,           0., 0.00625000009
      5, 0.0799999982, 0.00625000009
      6, 0.0799999982, 0.0162499994
      7, 0.0399999991, 0.00724999979
      8, 0.0399999991, 0.00824999996
      9, 0.0399999991, 0.00925000012
     10, 0.0399999991, 0.0102500003
     11, 0.0399999991, 0.0112500004
     12, 0.0399999991, 0.0122499997
     13, 0.0399999991, 0.0132499998
     14, 0.0399999991,      0.01425
     15, 0.0399999991, 0.0152500002
     16, 0.0390000008, 0.0162499994
     17, 0.0379999988, 0.0162499994
     18, 0.0370000005, 0.0162499994
     19, 0.0359999985, 0.0162499994
     20, 0.0350000001, 0.0162499994
** ... 871 like lines cut
*Element, type=CPS4R
  1,   1,   7, 190, 102
  2,   7,   8, 191, 190
  3,   8,   9, 192, 191
  4,   9,  10, 193, 192
  5,  10,  11, 194, 193
  6,  11,  12, 195, 194
  7,  12,  13, 196, 195
  8,  13,  14, 197, 196
  9,  14,  15, 198, 197
 10,  15,   2,  16, 198
 11, 102, 190, 199, 101
 12, 190, 191, 200, 199
 13, 191, 192, 201, 200
 14, 192, 193, 202, 201
 15, 193, 194, 203, 202
 16, 194, 195, 204, 203
 17, 195, 196, 205, 204
 18, 196, 197, 206, 205
 19, 197, 198, 207, 206
 20, 198,  16,  17, 207
** ... 780 like lines cut
*Nset, nset=Set-1, generate
   1,  891,    1
*Elset, elset=Set-1, generate
   1,  800,    1
*Nset, nset=all_nodes, generate
   1,  891,    1
*Nset, nset=under_node
 1,
*Nset, nset=one_node
 2,
*Elset, elset="_top surrface_S2", internal, generate
  10,  400,   10
*Elset, elset="_top surrface_S4", internal, generate
 401,  791,   10
*Surface, type=ELEMENT, name="top surrface"
"_top surrface_S2", S2
"_top surrface_S4", S4
*Elset, elset="_bottom surface_S4", internal, generate
   1,  391,   10
*Elset, elset="_bottom surface_S2", internal, generate
 410,  800,   10
*Surface, type=ELEMENT, name="bottom surface"
"_bottom surface_S4", S4
"_bottom surface_S2", S2
** Section: steel
*Solid Section, elset=Set-1, material=steel
,
*End Part
**  
**
** ASSEMBLY
**
*Assembly, name=Assembly
**  
*Instance, name=plate-1, part=plate
*End Instance
**  
*Instance, name="layer 1/6-1", part="layer 1/6"
        0.04,      0.08625,           0.
*End Instance
**  
*Node
      1, 0.0399999991, 0.00625000009,           0.
*Node
      2,           0., 0.0162499994,           0.
*Nset, nset=Set-2, instance=plate-1
   1,   2,   3,   4,   5,   6,  16,  17,  18,  19,  20,  21,  22,  23,  24,  25
  26,  27,  28,  29,  30,  31,  32,  33,  34,  35,  36,  37,  38,  39,  40,  41
  42,  43,  44,  45,  46,  47,  48,  49,  50,  51,  52,  53,  54,  64,  65,  66
  67,  68,  69,  70,  71,  72,  73,  74,  75,  76,  77,  78,  79,  80,  81,  82
  83,  84,  85,  86,  87,  88,  89,  90,  91,  92,  93,  94,  95,  96,  97,  98
  99, 100, 101, 102, 103, 104, 105, 106, 107, 108, 109, 110, 111, 112, 113, 114
 115, 116, 117, 118, 119, 120, 121, 122, 123, 124, 125, 126, 127, 128, 129, 130
 131, 132, 133, 134, 135, 136, 137, 138, 139, 140, 141, 151, 152, 153, 154, 155
 156, 157, 158, 159, 160, 161, 162, 163, 164, 165, 166, 167, 168, 169, 170, 171
 172, 173, 174, 175, 176, 177, 178, 179, 180, 181, 182, 183, 184, 185, 186, 187
 188, 189
*Elset, elset=Set-2, instance=plate-1
   1,  10,  11,  20,  21,  30,  31,  40,  41,  50,  51,  60,  61,  70,  71,  80
  81,  90,  91, 100, 101, 110, 111, 120, 121, 130, 131, 140, 141, 150, 151, 160
 161, 170, 171, 180, 181, 190, 191, 200, 201, 210, 211, 220, 221, 230, 231, 240
 241, 250, 251, 260, 261, 270, 271, 280, 281, 290, 291, 300, 301, 310, 311, 320
 321, 330, 331, 340, 341, 350, 351, 360, 361, 370, 371, 380, 381, 390, 391, 400
 401, 410, 411, 420, 421, 430, 431, 440, 441, 450, 451, 460, 461, 470, 471, 480
 481, 490, 491, 500, 501, 510, 511, 520, 521, 530, 531, 540, 541, 550, 551, 560
 561, 570, 571, 580, 581, 590, 591, 600, 601, 610, 611, 620, 621, 630, 631, 640
 641, 650, 651, 660, 661, 670, 671, 680, 681, 690, 691, 700, 701, 710, 711, 720
 721, 730, 731, 740, 741, 750, 751, 760, 761, 770, 771, 780, 781, 790, 791, 800
*Nset, nset=Set-3, instance=plate-1
   2,   3,   6,  16,  17,  18,  19,  20,  21,  22,  23,  24,  25,  26,  27,  28
  29,  30,  31,  32,  33,  34,  35,  36,  37,  38,  39,  40,  41,  42,  43,  44
  45,  46,  47,  48,  49,  50,  51,  52,  53,  54, 151, 152, 153, 154, 155, 156
 157, 158, 159, 160, 161, 162, 163, 164, 165, 166, 167, 168, 169, 170, 171, 172
 173, 174, 175, 176, 177, 178, 179, 180, 181, 182, 183, 184, 185, 186, 187, 188
 189,
*Elset, elset=Set-3, instance=plate-1
  10,  20,  30,  40,  50,  60,  70,  80,  90, 100, 110, 120, 130, 140, 150, 160
 170, 180, 190, 200, 210, 220, 230, 240, 250, 260, 270, 280, 290, 300, 310, 320
 330, 340, 350, 360, 370, 380, 390, 400, 401, 411, 421, 431, 441, 451, 461, 471
 481, 491, 501, 511, 521, 531, 541, 551, 561, 571, 581, 591, 601, 611, 621, 631
 641, 651, 661, 671, 681, 691, 701, 711, 721, 731, 741, 751, 761, 771, 781, 791
*Nset, nset=Set-4, instance=plate-1
   2,   3,   6,  16,  17,  18,  19,  20,  21,  22,  23,  24,  25,  26,  27,  28
  29,  30,  31,  32,  33,  34,  35,  36,  37,  38,  39,  40,  41,  42,  43,  44
  45,  46,  47,  48,  49,  50,  51,  52,  53,  54, 151, 152, 153, 154, 155, 156
 157, 158, 159, 160, 161, 162, 163, 164, 165, 166, 167, 168, 169, 170, 171, 172
 173, 174, 175, 176, 177, 178, 179, 180, 181, 182, 183, 184, 185, 186, 187, 188
 189,
*Elset, elset=Set-4, instance=plate-1
  10,  20,  30,  40,  50,  60,  70,  80,  90, 100, 110, 120, 130, 140, 150, 160
 170, 180, 190, 200, 210, 220, 230, 240, 250, 260, 270, 280, 290, 300, 310, 320
 330, 340, 350, 360, 370, 380, 390, 400, 401, 411, 421, 431, 441, 451, 461, 471
 481, 491, 501, 511, 521, 531, 541, 551, 561, 571, 581, 591, 601, 611, 621, 631
 641, 651, 661, 671, 681, 691, 701, 711, 721, 731, 741, 751, 761, 771, 781, 791
*Nset, nset=Set-5, instance=plate-1
 1,
*Nset, nset=Set-6, instance=plate-1
 1,
*Nset, nset=Set-14, instance=plate-1
   2,   3,   6,  16,  17,  18,  19,  20,  21,  22,  23,  24,  25,  26,  27,  28
  29,  30,  31,  32,  33,  34,  35,  36,  37,  38,  39,  40,  41,  42,  43,  44
  45,  46,  47,  48,  49,  50,  51,  52,  53,  54, 151, 152, 153, 154, 155, 156
 157, 158, 159, 160, 161, 162, 163, 164, 165, 166, 167, 168, 169, 170, 171, 172
 173, 174, 175, 176, 177, 178, 179, 180, 181, 182, 183, 184, 185, 186, 187, 188
 189,
*Elset, elset=Set-14, instance=plate-1
  10,  20,  30,  40,  50,  60,  70,  80,  90, 100, 110, 120, 130, 140, 150, 160
 170, 180, 190, 200, 210, 220, 230, 240, 250, 260, 270, 280, 290, 300, 310, 320
 330, 340, 350, 360, 370, 380, 390, 400, 401, 411, 421, 431, 441, 451, 461, 471
 481, 491, 501, 511, 521, 531, 541, 551, 561, 571, 581, 591, 601, 611, 621, 631
 641, 651, 661, 671, 681, 691, 701, 711, 721, 731, 741, 751, 761, 771, 781, 791
*Nset, nset=Set-15, instance=plate-1
   2,   3,   6,  16,  17,  18,  19,  20,  21,  22,  23,  24,  25,  26,  27,  28
  29,  30,  31,  32,  33,  34,  35,  36,  37,  38,  39,  40,  41,  42,  43,  44
  45,  46,  47,  48,  49,  50,  51,  52,  53,  54, 151, 152, 153, 154, 155, 156
 157, 158, 159, 160, 161, 162, 163, 164, 165, 166, 167, 168, 169, 170, 171, 172
 173, 174, 175, 176, 177, 178, 179, 180, 181, 182, 183, 184, 185, 186, 187, 188
 189,
*Elset, elset=Set-15, instance=plate-1
  10,  20,  30,  40,  50,  60,  70,  80,  90, 100, 110, 120, 130, 140, 150, 160
 170, 180, 190, 200, 210, 220, 230, 240, 250, 260, 270, 280, 290, 300, 310, 320
 330, 340, 350, 360, 370, 380, 390, 400, 401, 411, 421, 431, 441, 451, 461, 471
 481, 491, 501, 511, 521, 531, 541, 551, 561, 571, 581, 591, 601, 611, 621, 631
 641, 651, 661, 671, 681, 691, 701, 711, 721, 731, 741, 751, 761, 771, 781, 791
*Nset, nset=Set-16, instance=plate-1
   2,   3,   6,  16,  17,  18,  19,  20,  21,  22,  23,  24,  25,  26,  27,  28
  29,  30,  31,  32,  33,  34,  35,  36,  37,  38,  39,  40,  41,  42,  43,  44
  45,  46,  47,  48,  49,  50,  51,  52,  53,  54, 151, 152, 153, 154, 155, 156
 157, 158, 159, 160, 161, 162, 163, 164, 165, 166, 167, 168, 169, 170, 171, 172
 173, 174, 175, 176, 177, 178, 179, 180, 181, 182, 183, 184, 185, 186, 187, 188
 189,
*Elset, elset=Set-16, instance=plate-1
  10,  20,  30,  40,  50,  60,  70,  80,  90, 100, 110, 120, 130, 140, 150, 160
 170, 180, 190, 200, 210, 220, 230, 240, 250, 260, 270, 280, 290, 300, 310, 320
 330, 340, 350, 360, 370, 380, 390, 400, 401, 411, 421, 431, 441, 451, 461, 471
 481, 491, 501, 511, 521, 531, 541, 551, 561, 571, 581, 591, 601, 611, 621, 631
 641, 651, 661, 671, 681, 691, 701, 711, 721, 731, 741, 751, 761, 771, 781, 791
*Nset, nset=Set-17, instance=plate-1
   2,   3,   6,  16,  17,  18,  19,  20,  21,  22,  23,  24,  25,  26,  27,  28
  29,  30,  31,  32,  33,  34,  35,  36,  37,  38,  39,  40,  41,  42,  43,  44
  45,  46,  47,  48,  49,  50,  51,  52,  53,  54, 151, 152, 153, 154, 155, 156
 157, 158, 159, 160, 161, 162, 163, 164, 165, 166, 167, 168, 169, 170, 171, 172
 173, 174, 175, 176, 177, 178, 179, 180, 181, 182, 183, 184, 185, 186, 187, 188
 189,
*Elset, elset=Set-17, instance=plate-1
  10,  20,  30,  40,  50,  60,  70,  80,  90, 100, 110, 120, 130, 140, 150, 160
 170, 180, 190, 200, 210, 220, 230, 240, 250, 260, 270, 280, 290, 300, 310, 320
 330, 340, 350, 360, 370, 380, 390, 400, 401, 411, 421, 431, 441, 451, 461, 471
 481, 491, 501, 511, 521, 531, 541, 551, 561, 571, 581, 591, 601, 611, 621, 631
 641, 651, 661, 671, 681, 691, 701, 711, 721, 731, 741, 751, 761, 771, 781, 791
*Nset, nset=Set-18, instance=plate-1
   2,   3,   6,  16,  17,  18,  19,  20,  21,  22,  23,  24,  25,  26,  27,  28
  29,  30,  31,  32,  33,  34,  35,  36,  37,  38,  39,  40,  41,  42,  43,  44
  45,  46,  47,  48,  49,  50,  51,  52,  53,  54, 151, 152, 153, 154, 155, 156
 157, 158, 159, 160, 161, 162, 163, 164, 165, 166, 167, 168, 169, 170, 171, 172
 173, 174, 175, 176, 177, 178, 179, 180, 181, 182, 183, 184, 185, 186, 187, 188
 189,
*Elset, elset=Set-18, instance=plate-1
  10,  20,  30,  40,  50,  60,  70,  80,  90, 100, 110, 120, 130, 140, 150, 160
 170, 180, 190, 200, 210, 220, 230, 240, 250, 260, 270, 280, 290, 300, 310, 320
 330, 340, 350, 360, 370, 380, 390, 400, 401, 411, 421, 431, 441, 451, 461, 471
 481, 491, 501, 511, 521, 531, 541, 551, 561, 571, 581, 591, 601, 611, 621, 631
 641, 651, 661, 671, 681, 691, 701, 711, 721, 731, 741, 751, 761, 771, 781, 791
*Nset, nset=Set-19, instance=plate-1
   2,   3,   6,  16,  17,  18,  19,  20,  21,  22,  23,  24,  25,  26,  27,  28
  29,  30,  31,  32,  33,  34,  35,  36,  37,  38,  39,  40,  41,  42,  43,  44
  45,  46,  47,  48,  49,  50,  51,  52,  53,  54, 151, 152, 153, 154, 155, 156
 157, 158, 159, 160, 161, 162, 163, 164, 165, 166, 167, 168, 169, 170, 171, 172
 173, 174, 175, 176, 177, 178, 179, 180, 181, 182, 183, 184, 185, 186, 187, 188
 189,
*Elset, elset=Set-19, instance=plate-1
  10,  20,  30,  40,  50,  60,  70,  80,  90, 100, 110, 120, 130, 140, 150, 160
 170, 180, 190, 200, 210, 220, 230, 240, 250, 260, 270, 280, 290, 300, 310, 320
 330, 340, 350, 360, 370, 380, 390, 400, 401, 411, 421, 431, 441, 451, 461, 471
 481, 491, 501, 511, 521, 531, 541, 551, 561, 571, 581, 591, 601, 611, 621, 631
 641, 651, 661, 671, 681, 691, 701, 711, 721, 731, 741, 751, 761, 771, 781, 791
*Nset, nset=Set-20, instance=plate-1
   2,   3,   6,  16,  17,  18,  19,  20,  21,  22,  23,  24,  25,  26,  27,  28
  29,  30,  31,  32,  33,  34,  35,  36,  37,  38,  39,  40,  41,  42,  43,  44
  45,  46,  47,  48,  49,  50,  51,  52,  53,  54, 151, 152, 153, 154, 155, 156
 157, 158, 159, 160, 161, 162, 163, 164, 165, 166, 167, 168, 169, 170, 171, 172
 173, 174, 175, 176, 177, 178, 179, 180, 181, 182, 183, 184, 185, 186, 187, 188
 189,
*Elset, elset=Set-20, instance=plate-1
  10,  20,  30,  40,  50,  60,  70,  80,  90, 100, 110, 120, 130, 140, 150, 160
 170, 180, 190, 200, 210, 220, 230, 240, 250, 260, 270, 280, 290, 300, 310, 320
 330, 340, 350, 360, 370, 380, 390, 400, 401, 411, 421, 431, 441, 451, 461, 471
 481, 491, 501, 511, 521, 531, 541, 551, 561, 571, 581, 591, 601, 611, 621, 631
 641, 651, 661, 671, 681, 691, 701, 711, 721, 731, 741, 751, 761, 771, 781, 791
*Nset, nset=Set-21, instance=plate-1
   2,   3,   6,  16,  17,  18,  19,  20,  21,  22,  23,  24,  25,  26,  27,  28
  29,  30,  31,  32,  33,  34,  35,  36,  37,  38,  39,  40,  41,  42,  43,  44
  45,  46,  47,  48,  49,  50,  51,  52,  53,  54, 151, 152, 153, 154, 155, 156
 157, 158, 159, 160, 161, 162, 163, 164, 165, 166, 167, 168, 169, 170, 171, 172
 173, 174, 175, 176, 177, 178, 179, 180, 181, 182, 183, 184, 185, 186, 187, 188
 189,
*Elset, elset=Set-21, instance=plate-1
  10,  20,  30,  40,  50,  60,  70,  80,  90, 100, 110, 120, 130, 140, 150, 160
 170, 180, 190, 200, 210, 220, 230, 240, 250, 260, 270, 280, 290, 300, 310, 320
 330, 340, 350, 360, 370, 380, 390, 400, 401, 411, 421, 431, 441, 451, 461, 471
 481, 491, 501, 511, 521, 531, 541, 551, 561, 571, 581, 591, 601, 611, 621, 631
 641, 651, 661, 671, 681, 691, 701, 711, 721, 731, 741, 751, 761, 771, 781, 791
*Nset, nset=Set-22, instance=plate-1
   2,   3,   6,  16,  17,  18,  19,  20,  21,  22,  23,  24,  25,  26,  27,  28
  29,  30,  31,  32,  33,  34,  35,  36,  37,  38,  39,  40,  41,  42,  43,  44
  45,  46,  47,  48,  49,  50,  51,  52,  53,  54, 151, 152, 153, 154, 155, 156
 157, 158, 159, 160, 161, 162, 163, 164, 165, 166, 167, 168, 169, 170, 171, 172
 173, 174, 175, 176, 177, 178, 179, 180, 181, 182, 183, 184, 185, 186, 187, 188
 189,
*Elset, elset=Set-22, instance=plate-1
  10,  20,  30,  40,  50,  60,  70,  80,  90, 100, 110, 120, 130, 140, 150, 160
 170, 180, 190, 200, 210, 220, 230, 240, 250, 260, 270, 280, 290, 300, 310, 320
 330, 340, 350, 360, 370, 380, 390, 400, 401, 411, 421, 431, 441, 451, 461, 471
 481, 491, 501, 511, 521, 531, 541, 551, 561, 571, 581, 591, 601, 611, 621, 631
 641, 651, 661, 671, 681, 691, 701, 711, 721, 731, 741, 751, 761, 771, 781, 791
*Nset, nset=Set-23, instance=plate-1
   2,   3,   6,  16,  17,  18,  19,  20,  21,  22,  23,  24,  25,  26,  27,  28
  29,  30,  31,  32,  33,  34,  35,  36,  37,  38,  39,  40,  41,  42,  43,  44
  45,  46,  47,  48,  49,  50,  51,  52,  53,  54, 151, 152, 153, 154, 155, 156
 157, 158, 159, 160, 161, 162, 163, 164, 165, 166, 167, 168, 169, 170, 171, 172
 173, 174, 175, 176, 177, 178, 179, 180, 181, 182, 183, 184, 185, 186, 187, 188
 189,
*Elset, elset=Set-23, instance=plate-1
  10,  20,  30,  40,  50,  60,  70,  80,  90, 100, 110, 120, 130, 140, 150, 160
 170, 180, 190, 200, 210, 220, 230, 240, 250, 260, 270, 280, 290, 300, 310, 320
 330, 340, 350, 360, 370, 380, 390, 400, 401, 411, 421, 431, 441, 451, 461, 471
 481, 491, 501, 511, 521, 531, 541, 551, 561, 571, 581, 591, 601, 611, 621, 631
 641, 651, 661, 671, 681, 691, 701, 711, 721, 731, 741, 751, 761, 771, 781, 791
*Nset, nset=Set-24, instance=plate-1
   2,   3,   6,  16,  17,  18,  19,  20,  21,  22,  23,  24,  25,  26,  27,  28
  29,  30,  31,  32,  33,  34,  35,  36,  37,  38,  39,  40,  41,  42,  43,  44
  45,  46,  47,  48,  49,  50,  51,  52,  53,  54, 151, 152, 153, 154, 155, 156
 157, 158, 159, 160, 161, 162, 163, 164, 165, 166, 167, 168, 169, 170, 171, 172
 173, 174, 175, 176, 177, 178, 179, 180, 181, 182, 183, 184, 185, 186, 187, 188
 189,
*Elset, elset=Set-24, instance=plate-1
  10,  20,  30,  40,  50,  60,  70,  80,  90, 100, 110, 120, 130, 140, 150, 160
 170, 180, 190, 200, 210, 220, 230, 240, 250, 260, 270, 280, 290, 300, 310, 320
 330, 340, 350, 360, 370, 380, 390, 400, 401, 411, 421, 431, 441, 451, 461, 471
 481, 491, 501, 511, 521, 531, 541, 551, 561, 571, 581, 591, 601, 611, 621, 631
 641, 651, 661, 671, 681, 691, 701, 711, 721, 731, 741, 751, 761, 771, 781, 791
*Nset, nset=Set-25, instance=plate-1
   2,   3,   6,  16,  17,  18,  19,  20,  21,  22,  23,  24,  25,  26,  27,  28
  29,  30,  31,  32,  33,  34,  35,  36,  37,  38,  39,  40,  41,  42,  43,  44
  45,  46,  47,  48,  49,  50,  51,  52,  53,  54, 151, 152, 153, 154, 155, 156
 157, 158, 159, 160, 161, 162, 163, 164, 165, 166, 167, 168, 169, 170, 171, 172
 173, 174, 175, 176, 177, 178, 179, 180, 181, 182, 183, 184, 185, 186, 187, 188
 189,
*Elset, elset=Set-25, instance=plate-1
  10,  20,  30,  40,  50,  60,  70,  80,  90, 100, 110, 120, 130, 140, 150, 160
 170, 180, 190, 200, 210, 220, 230, 240, 250, 260, 270, 280, 290, 300, 310, 320
 330, 340, 350, 360, 370, 380, 390, 400, 401, 411, 421, 431, 441, 451, 461, 471
 481, 491, 501, 511, 521, 531, 541, 551, 561, 571, 581, 591, 601, 611, 621, 631
 641, 651, 661, 671, 681, 691, 701, 711, 721, 731, 741, 751, 761, 771, 781, 791
*Nset, nset=Set-26, instance=plate-1
   2,   3,   6,  16,  17,  18,  19,  20,  21,  22,  23,  24,  25,  26,  27,  28
  29,  30,  31,  32,  33,  34,  35,  36,  37,  38,  39,  40,  41,  42,  43,  44
  45,  46,  47,  48,  49,  50,  51,  52,  53,  54, 151, 152, 153, 154, 155, 156
 157, 158, 159, 160, 161, 162, 163, 164, 165, 166, 167, 168, 169, 170, 171, 172
 173, 174, 175, 176, 177, 178, 179, 180, 181, 182, 183, 184, 185, 186, 187, 188
 189,
*Elset, elset=Set-26, instance=plate-1
  10,  20,  30,  40,  50,  60,  70,  80,  90, 100, 110, 120, 130, 140, 150, 160
 170, 180, 190, 200, 210, 220, 230, 240, 250, 260, 270, 280, 290, 300, 310, 320
 330, 340, 350, 360, 370, 380, 390, 400, 401, 411, 421, 431, 441, 451, 461, 471
 481, 491, 501, 511, 521, 531, 541, 551, 561, 571, 581, 591, 601, 611, 621, 631
 641, 651, 661, 671, 681, 691, 701, 711, 721, 731, 741, 751, 761, 771, 781, 791
*Nset, nset=Set-27, instance=plate-1
   2,   3,   6,  16,  17,  18,  19,  20,  21,  22,  23,  24,  25,  26,  27,  28
  29,  30,  31,  32,  33,  34,  35,  36,  37,  38,  39,  40,  41,  42,  43,  44
  45,  46,  47,  48,  49,  50,  51,  52,  53,  54, 151, 152, 153, 154, 155, 156
 157, 158, 159, 160, 161, 162, 163, 164, 165, 166, 167, 168, 169, 170, 171, 172
 173, 174, 175, 176, 177, 178, 179, 180, 181, 182, 183, 184, 185, 186, 187, 188
 189,
*Elset, elset=Set-27, instance=plate-1
  10,  20,  30,  40,  50,  60,  70,  80,  90, 100, 110, 120, 130, 140, 150, 160
 170, 180, 190, 200, 210, 220, 230, 240, 250, 260, 270, 280, 290, 300, 310, 320
 330, 340, 350, 360, 370, 380, 390, 400, 401, 411, 421, 431, 441, 451, 461, 471
 481, 491, 501, 511, 521, 531, 541, 551, 561, 571, 581, 591, 601, 611, 621, 631
 641, 651, 661, 671, 681, 691, 701, 711, 721, 731, 741, 751, 761, 771, 781, 791
*Nset, nset=Set-28, instance=plate-1
   2,   3,   6,  16,  17,  18,  19,  20,  21,  22,  23,  24,  25,  26,  27,  28
  29,  30,  31,  32,  33,  34,  35,  36,  37,  38,  39,  40,  41,  42,  43,  44
  45,  46,  47,  48,  49,  50,  51,  52,  53,  54, 151, 152, 153, 154, 155, 156
 157, 158, 159, 160, 161, 162, 163, 164, 165, 166, 167, 168, 169, 170, 171, 172
 173, 174, 175, 176, 177, 178, 179, 180, 181, 182, 183, 184, 185, 186, 187, 188
 189,
*Elset, elset=Set-28, instance=plate-1
  10,  20,  30,  40,  50,  60,  70,  80,  90, 100, 110, 120, 130, 140, 150, 160
 170, 180, 190, 200, 210, 220, 230, 240, 250, 260, 270, 280, 290, 300, 310, 320
 330, 340, 350, 360, 370, 380, 390, 400, 401, 411, 421, 431, 441, 451, 461, 471
 481, 491, 501, 511, 521, 531, 541, 551, 561, 571, 581, 591, 601, 611, 621, 631
 641, 651, 661, 671, 681, 691, 701, 711, 721, 731, 741, 751, 761, 771, 781, 791
*Nset, nset=Set-29, instance=plate-1
   2,   3,   6,  16,  17,  18,  19,  20,  21,  22,  23,  24,  25,  26,  27,  28
  29,  30,  31,  32,  33,  34,  35,  36,  37,  38,  39,  40,  41,  42,  43,  44
  45,  46,  47,  48,  49,  50,  51,  52,  53,  54, 151, 152, 153, 154, 155, 156
 157, 158, 159, 160, 161, 162, 163, 164, 165, 166, 167, 168, 169, 170, 171, 172
 173, 174, 175, 176, 177, 178, 179, 180, 181, 182, 183, 184, 185, 186, 187, 188
 189,
*Elset, elset=Set-29, instance=plate-1
  10,  20,  30,  40,  50,  60,  70,  80,  90, 100, 110, 120, 130, 140, 150, 160
 170, 180, 190, 200, 210, 220, 230, 240, 250, 260, 270, 280, 290, 300, 310, 320
 330, 340, 350, 360, 370, 380, 390, 400, 401, 411, 421, 431, 441, 451, 461, 471
 481, 491, 501, 511, 521, 531, 541, 551, 561, 571, 581, 591, 601, 611, 621, 631
 641, 651, 661, 671, 681, 691, 701, 711, 721, 731, 741, 751, 761, 771, 781, 791
*Nset, nset=Set-30, instance=plate-1
   2,   3,   6,  16,  17,  18,  19,  20,  21,  22,  23,  24,  25,  26,  27,  28
  29,  30,  31,  32,  33,  34,  35,  36,  37,  38,  39,  40,  41,  42,  43,  44
  45,  46,  47,  48,  49,  50,  51,  52,  53,  54, 151, 152, 153, 154, 155, 156
 157, 158, 159, 160, 161, 162, 163, 164, 165, 166, 167, 168, 169, 170, 171, 172
 173, 174, 175, 176, 177, 178, 179, 180, 181, 182, 183, 184, 185, 186, 187, 188
 189,
*Elset, elset=Set-30, instance=plate-1
  10,  20,  30,  40,  50,  60,  70,  80,  90, 100, 110, 120, 130, 140, 150, 160
 170, 180, 190, 200, 210, 220, 230, 240, 250, 260, 270, 280, 290, 300, 310, 320
 330, 340, 350, 360, 370, 380, 390, 400, 401, 411, 421, 431, 441, 451, 461, 471
 481, 491, 501, 511, 521, 531, 541, 551, 561, 571, 581, 591, 601, 611, 621, 631
 641, 651, 661, 671, 681, 691, 701, 711, 721, 731, 741, 751, 761, 771, 781, 791
*Nset, nset=Set-31, instance=plate-1
   2,   3,   6,  16,  17,  18,  19,  20,  21,  22,  23,  24,  25,  26,  27,  28
  29,  30,  31,  32,  33,  34,  35,  36,  37,  38,  39,  40,  41,  42,  43,  44
  45,  46,  47,  48,  49,  50,  51,  52,  53,  54, 151, 152, 153, 154, 155, 156
 157, 158, 159, 160, 161, 162, 163, 164, 165, 166, 167, 168, 169, 170, 171, 172
 173, 174, 175, 176, 177, 178, 179, 180, 181, 182, 183, 184, 185, 186, 187, 188
 189,
*Elset, elset=Set-31, instance=plate-1
  10,  20,  30,  40,  50,  60,  70,  80,  90, 100, 110, 120, 130, 140, 150, 160
 170, 180, 190, 200, 210, 220, 230, 240, 250, 260, 270, 280, 290, 300, 310, 320
 330, 340, 350, 360, 370, 380, 390, 400, 401, 411, 421, 431, 441, 451, 461, 471
 481, 491, 501, 511, 521, 531, 541, 551, 561, 571, 581, 591, 601, 611, 621, 631
 641, 651, 661, 671, 681, 691, 701, 711, 721, 731, 741, 751, 761, 771, 781, 791
*Nset, nset=Set-32, instance=plate-1
   2,   3,   6,  16,  17,  18,  19,  20,  21,  22,  23,  24,  25,  26,  27,  28
  29,  30,  31,  32,  33,  34,  35,  36,  37,  38,  39,  40,  41,  42,  43,  44
  45,  46,  47,  48,  49,  50,  51,  52,  53,  54, 151, 152, 153, 154, 155, 156
 157, 158, 159, 160, 161, 162, 163, 164, 165, 166, 167, 168, 169, 170, 171, 172
 173, 174, 175, 176, 177, 178, 179, 180, 181, 182, 183, 184, 185, 186, 187, 188
 189,
*Elset, elset=Set-32, instance=plate-1
  10,  20,  30,  40,  50,  60,  70,  80,  90, 100, 110, 120, 130, 140, 150, 160
 170, 180, 190, 200, 210, 220, 230, 240, 250, 260, 270, 280, 290, 300, 310, 320
 330, 340, 350, 360, 370, 380, 390, 400, 401, 411, 421, 431, 441, 451, 461, 471
 481, 491, 501, 511, 521, 531, 541, 551, 561, 571, 581, 591, 601, 611, 621, 631
 641, 651, 661, 671, 681, 691, 701, 711, 721, 731, 741, 751, 761, 771, 781, 791
*Nset, nset=Set-33, instance="layer 1/6-1"
    5,    6,    9, 1977, 1978, 1979, 1980, 1981, 1982, 1983, 1984, 1985, 1986, 1987, 1988, 1989
 1990, 1991, 1992, 1993, 1994, 1995, 1996, 1997, 1998, 1999, 2000, 2001, 2002, 2003, 2004, 2005
 2006, 2055, 2056, 2057, 2058, 2059, 2060, 2061, 2062, 2063, 2064, 2065, 2066, 2067, 2068, 2069
 2070, 2071, 2072, 2073, 2074, 2075, 2076, 2077, 2078, 2079, 2080, 2081, 2082, 2083, 2084
*Elset, elset=Set-33, instance="layer 1/6-1"
 34596, 34597, 34598, 34610, 34629, 34641, 34642, 34643, 34644, 34646, 34657, 34659, 34660, 34667, 34668, 34712
 34713, 34714, 34759, 34786, 34789, 34832, 34833, 34834, 34835, 41259, 41265, 41279, 41282, 41283, 41285, 43384
 43385, 43412, 43420, 43431, 43432, 43440, 43446, 43447, 43448, 43450, 43457, 43459, 43466, 43467, 43469, 43472
 43503, 43539, 43547, 43549, 43555, 43605, 43606, 43607, 43608, 49734, 49739, 49752, 49764, 49765
*Nset, nset=m_Set-8, instance=plate-1
 1,
*Nset, nset=m_Set-10
 2,
*Elset, elset=_m_Surf-1_S2, internal, instance=plate-1, generate
  10,  400,   10
*Elset, elset=_m_Surf-1_S4, internal, instance=plate-1, generate
 401,  791,   10
*Surface, type=ELEMENT, name=m_Surf-1
_m_Surf-1_S2, S2
_m_Surf-1_S4, S4
*Elset, elset=_m_Surf-4_S2, internal, instance=plate-1, generate
  10,  400,   10
*Elset, elset=_m_Surf-4_S4, internal, instance=plate-1, generate
 401,  791,   10
*Surface, type=ELEMENT, name=m_Surf-4
_m_Surf-4_S2, S2
_m_Surf-4_S4, S4
*Elset, elset=_m_Surf-10_S2, internal, instance=plate-1, generate
  10,  400,   10
*Elset, elset=_m_Surf-10_S4, internal, instance=plate-1, generate
 401,  791,   10
*Surface, type=ELEMENT, name=m_Surf-10
_m_Surf-10_S2, S2
_m_Surf-10_S4, S4
*Elset, elset=_m_Surf-12_S3, internal, instance=plate-1, generate
 391,  400,    1
*Surface, type=ELEMENT, name=m_Surf-12
_m_Surf-12_S3, S3
*Elset, elset=_m_Surf-14_S1, internal, instance="layer 1/6-1"
    62,   600,   671,   928,   952,  1032,  1067,  1078,  1102,  1117,  1124,  1127,  1128,  1182,  1191,  1194
  1205,  1214,  1243,  1267,  1269,  1270,  1286,  1288,  1565,  1568,  1847,  1957,  2440,  2517,  2582,  2584
  2592,  2604,  3135,  3200,  3216,  3297,  3424,  3448,  3455,  3541,  3579,  3598,  3728,  3766,  3780,  3793
  3794,  4001,  4018,  4031,  4037,  4046,  4052,  4053,  4054,  4055,  4058,  4062,  4063,  4066,  4069,  4070
  4071,  4075,  4077,  4080,  4086,  4087,  4091,  4092,  4093,  4095,  4102,  4104,  4105,  4106,  4107,  4110
  4111,  4115,  4116,  4121,  4122,  4124,  4125,  4126,  4129,  4133,  4136,  4141,  4146,  4147,  4155,  4158
  4160,  4165,  4166,  4167,  4168,  4173,  4176,  4177,  4178,  4179,  4186,  4187,  4193,  4206,  4215,  4217
  4219,  4221,  4225,  4227,  4237,  4241,  4243,  4244,  4252,  4253,  4258,  4261,  4263,  4264,  4267,  4269
  4270,  4271,  4272,  4277,  4278,  4282,  4283,  4285,  4286,  4290,  4292,  4293,  4294,  4296,  4298,  4300
  4599,  4613,  4621,  4629,  4642,  4645,  4658,  4659,  4660,  4667,  4749,  4771,  4902,  4960,  5078,  5535
  7512, 11685, 11693, 11700, 11701, 11702, 11727, 11728, 11729, 11762, 11764, 11779, 11781, 11786, 11791, 11802
 11805, 11811, 11819, 11845, 11846, 11850, 11852, 11857, 11858, 11859, 11865, 11867, 11868, 12033, 12037, 12044
 12048, 12054, 17752, 18132, 18153, 18212, 18217, 18227, 18229, 18277, 18278, 18288, 18297, 18299, 18311, 18312
 18353, 18378, 18381, 18389, 18397, 18412, 18446, 18466, 18500, 18502, 18897, 19053, 19919, 20380, 20381, 20434
 20550, 20562, 20595, 20596, 20638, 20674, 20688, 20709, 20796, 20842, 20897, 20926, 20946, 21113, 21119, 21122
 21149, 21159, 21162, 21163, 21166, 21167, 21169, 21174, 21175, 21178, 21180, 21184, 21187, 21188, 21190, 21191
 21192, 21193, 21194, 21208, 21243, 21246, 21247, 21248, 21250, 21252, 21263, 21272, 21273, 21274, 21281, 21283
 21285, 21286, 21287, 21290, 21293, 21295, 21297, 21303, 21306, 21307, 21313, 21315, 21317, 21320, 21321, 21322
 21325, 21330, 21334, 21335, 21338, 21339, 21342, 21344, 21346, 21348, 21353, 21356, 21359, 21364, 21370, 21372
 21375, 21379, 21381, 21392, 21405, 21406, 21414, 21735, 21737, 21749, 21815, 21846, 21897, 21911, 21928, 22143
 22144, 22170, 24505, 24568, 28770, 28771, 28828, 28834, 28839, 28842, 28851, 28854, 28865, 28876, 28877, 28965
 29124, 29126, 29129, 29136, 29140, 29146, 29147, 29152, 29164
*Elset, elset=_m_Surf-14_S3, internal, instance="layer 1/6-1"
   599,   601,   843,  1005,  1056,  1063,  1064,  1101,  1113,  1116,  1123,  1149,  1171,  1190,  1215,  1236
  1238,  1244,  1250,  1266,  1274,  1275,  1290,  1566,  1567,  1954,  1958,  2088,  2106,  2380,  2387,  2444
  2521,  2593,  2702,  2804,  2824,  2860,  3089,  3176,  3194,  3328,  3472,  3520,  3576,  3625,  3627,  3755
  3765,  3855,  4002,  4003,  4034,  4039,  4042,  4056,  4059,  4067,  4068,  4072,  4074,  4076,  4079,  4084
  4085,  4088,  4096,  4097,  4098,  4099,  4109,  4127,  4128,  4130,  4137,  4149,  4159,  4162,  4174,  4184
  4185,  4220,  4234,  4250,  4262,  4266,  4598,  4600,  4602,  4617,  4635,  4637,  4638,  4661,  4662,  4664
  4665,  4687,  4780,  4809,  4978,  5027,  5167,  5308,  5946,  7513,  7520,  7532, 11694, 11704, 11705, 11708
 11711, 11720, 11725, 11731, 11733, 11744, 11759, 11766, 11774, 11783, 11793, 11797, 11800, 11803, 11810, 11822
 11830, 11832, 11839, 11847, 11866, 11870, 12032, 12035, 12051, 12053, 12055, 12057, 18033, 18219, 18250, 18255
 18262, 18269, 18276, 18286, 18298, 18335, 18343, 18352, 18440, 18467, 18484, 19921, 20442, 20455, 20537, 20610
 20625, 20729, 20870, 20912, 20927, 20938, 21099, 21128, 21129, 21143, 21153, 21156, 21158, 21161, 21168, 21170
 21172, 21173, 21199, 21200, 21203, 21206, 21207, 21223, 21251, 21254, 21284, 21301, 21308, 21349, 21354, 21362
 21377, 21383, 21386, 21390, 21397, 21398, 21404, 21746, 21748, 21770, 21775, 21819, 21916, 21932, 21933, 22134
 22934, 23411, 28769, 28820, 28822, 28825, 28830, 28832, 28837, 28840, 28844, 28858, 28860, 28862, 28866, 28868
 28874, 28875, 28879, 28886, 28905, 28911, 28939, 28940, 29123, 29131, 29149, 29154, 29157, 29161
*Elset, elset=_m_Surf-14_S4, internal, instance="layer 1/6-1"
   679,   857,   899,   901,   918,   947,   951,   968,  1065,  1095,  1235,  1272,  1279,  1289,  1317,  1329
  2317,  2939,  3333,  3336,  3754,  3778,  3831,  3854,  4020,  4021,  4024,  4025,  4026,  4029,  4030,  4035
  4038,  4041,  4043,  4045,  4050,  4061,  4065,  4082,  4112,  4118,  4131,  4142,  4170,  4175,  4183,  4189
  4194,  4198,  4200,  4209,  4213,  4224,  4226,  4229,  4236,  4240,  4248,  4251,  4254,  4259,  4279,  4289
  4295,  4297,  4299,  4636,  4774,  4810,  4916,  5054,  5079,  5200,  5577,  5593,  6427, 11655, 11825, 11871
 11872, 12036, 17751, 17754, 17896, 17981, 18133, 18135, 18139, 18142, 18154, 18213, 18215, 18223, 18234, 18260
 18275, 18287, 18380, 18398, 18411, 18439, 18503, 18565, 18570, 19236, 19237, 19465, 19693, 20333, 20412, 20523
 20563, 20751, 20800, 20924, 20937, 20939, 20944, 20945, 21095, 21096, 21097, 21098, 21103, 21106, 21107, 21109
 21110, 21114, 21121, 21123, 21125, 21126, 21134, 21136, 21141, 21142, 21145, 21147, 21148, 21151, 21157, 21164
 21177, 21185, 21189, 21195, 21197, 21198, 21202, 21204, 21205, 21233, 21235, 21237, 21249, 21256, 21258, 21260
 21261, 21266, 21267, 21268, 21270, 21279, 21280, 21298, 21304, 21312, 21318, 21319, 21336, 21343, 21347, 21355
 21361, 21367, 21368, 21371, 21384, 21388, 21394, 21408, 21409, 21413, 21415, 21754, 21772, 21778, 21845, 21850
 22095, 22141, 28867, 28878, 28917, 28943, 28956
*Elset, elset=_m_Surf-14_S2, internal, instance="layer 1/6-1"
   854,   858,   897,   971,   974,  1265,  1287,  2083,  2759,  2907,  3260,  3308,  3334,  3768,  3857,  4017
  4023,  4036,  4100,  4103,  4114,  4117,  4119,  4135,  4164,  4181,  4182,  4188,  4195,  4202,  4204,  4207
  4208,  4210,  4212,  4214,  4222,  4228,  4230,  4238,  4239,  4242,  4255,  4275,  4281,  4640,  4655,  4785
  4943,  5007, 11644, 11647, 11650, 11651, 11660, 11661, 11664, 11673, 11747, 11753, 17193, 17895, 17897, 17898
 17900, 17903, 17904, 18078, 18134, 18143, 18144, 18151, 18152, 18156, 18214, 18222, 18228, 18247, 18257, 18458
 18564, 19054, 19163, 19238, 19467, 20092, 20398, 20524, 20869, 20877, 20943, 21101, 21104, 21111, 21115, 21116
 21117, 21118, 21120, 21127, 21130, 21131, 21137, 21140, 21144, 21150, 21152, 21171, 21179, 21186, 21226, 21230
 21231, 21234, 21238, 21239, 21241, 21244, 21245, 21255, 21257, 21262, 21269, 21275, 21278, 21282, 21289, 21302
 21305, 21316, 21327, 21333, 21345, 21350, 21358, 21385, 21396, 21410, 21412, 21416, 21741, 21744, 21763, 21820
 21849, 21930, 22137, 22139, 22231, 28906, 28907, 28909, 28915, 28916, 28918, 28922, 28923, 28927, 28936, 28938
 28941, 28950, 28951, 28953, 28961, 28963, 28964, 28968, 28977, 28981
*Surface, type=ELEMENT, name=m_Surf-14
_m_Surf-14_S1, S1
_m_Surf-14_S3, S3
_m_Surf-14_S4, S4
_m_Surf-14_S2, S2
*Elset, elset=_s_Surf-3_S2, internal, instance=plate-1, generate
  10,  400,   10
*Elset, elset=_s_Surf-3_S4, internal, instance=plate-1, generate
 401,  791,   10
*Surface, type=ELEMENT, name=s_Surf-3
_s_Surf-3_S2, S2
_s_Surf-3_S4, S4
*Elset, elset=_s_Surf-4_S2, internal, instance=plate-1, generate
 410,  800,   10
*Elset, elset=_s_Surf-4_S4, internal, instance=plate-1, generate
   1,  391,   10
*Surface, type=ELEMENT, name=s_Surf-4
_s_Surf-4_S2, S2
_s_Surf-4_S4, S4
*Elset, elset=_s_Surf-8_S2, internal, instance=plate-1, generate
  10,  400,   10
*Elset, elset=_s_Surf-8_S4, internal, instance=plate-1, generate
 401,  791,   10
*Surface, type=ELEMENT, name=s_Surf-8
_s_Surf-8_S2, S2
_s_Surf-8_S4, S4
*Elset, elset=_s_Surf-10_S3, internal, instance=plate-1
 391, 392, 393, 394, 395, 396, 397, 398, 399, 400, 791, 792, 793, 794, 795, 796
 797, 798, 799, 800
*Surface, type=ELEMENT, name=s_Surf-10
_s_Surf-10_S3, S3
*Elset, elset=_s_Surf-12_S3, internal, instance=plate-1, generate
 791,  800,    1
*Surface, type=ELEMENT, name=s_Surf-12
_s_Surf-12_S3, S3
*Elset, elset=_s_Surf-14_S2, internal, instance=plate-1, generate
  10,  400,   10
*Elset, elset=_s_Surf-14_S4, internal, instance=plate-1, generate
 401,  791,   10
*Surface, type=ELEMENT, name=s_Surf-14
_s_Surf-14_S2, S2
_s_Surf-14_S4, S4
** Constraint: Top-Bottom
*Tie, name=Top-Bottom, adjust=yes
plate-1."top surrface", plate-1."bottom surface"
*Elset, elset="__general contact_gcs0_10_S1", internal, instance="layer 1/6-1"
    62,   600,   671,   928,   952,  1032,  1067,  1078,  1102,  1117,  1124,  1127,  1128,  1182,  1191,  1194
  1205,  1214,  1243,  1267,  1269,  1270,  1286,  1288,  1565,  1568,  1847,  1957,  2440,  2517,  2582,  2584
  2592,  2604,  3135,  3200,  3216,  3297,  3424,  3448,  3455,  3541,  3579,  3598,  3728,  3766,  3780,  3793
  3794,  4001,  4018,  4031,  4037,  4046,  4052,  4053,  4054,  4055,  4058,  4062,  4063,  4066,  4069,  4070
  4071,  4075,  4077,  4080,  4086,  4087,  4091,  4092,  4093,  4095,  4102,  4104,  4105,  4106,  4107,  4110
  4111,  4115,  4116,  4121,  4122,  4124,  4125,  4126,  4129,  4133,  4136,  4141,  4146,  4147,  4155,  4158
  4160,  4165,  4166,  4167,  4168,  4173,  4176,  4177,  4178,  4179,  4186,  4187,  4193,  4206,  4215,  4217
  4219,  4221,  4225,  4227,  4237,  4241,  4243,  4244,  4252,  4253,  4258,  4261,  4263,  4264,  4267,  4269
  4270,  4271,  4272,  4277,  4278,  4282,  4283,  4285,  4286,  4290,  4292,  4293,  4294,  4296,  4298,  4300
  4599,  4613,  4621,  4629,  4642,  4645,  4658,  4659,  4660,  4667,  4749,  4771,  4902,  4960,  5078,  5535
  7512, 11685, 11693, 11700, 11701, 11702, 11727, 11728, 11729, 11762, 11764, 11779, 11781, 11786, 11791, 11802
 11805, 11811, 11819, 11845, 11846, 11850, 11852, 11857, 11858, 11859, 11865, 11867, 11868, 12033, 12037, 12044
 12048, 12054
*Elset, elset="__general contact_gcs0_10_S3", internal, instance="layer 1/6-1"
   599,   601,   843,  1005,  1056,  1063,  1064,  1101,  1113,  1116,  1123,  1149,  1171,  1190,  1215,  1236
  1238,  1244,  1250,  1266,  1274,  1275,  1290,  1566,  1567,  1954,  1958,  2088,  2106,  2380,  2387,  2444
  2521,  2593,  2702,  2804,  2824,  2860,  3089,  3176,  3194,  3328,  3472,  3520,  3576,  3625,  3627,  3755
  3765,  3855,  4002,  4003,  4034,  4039,  4042,  4056,  4059,  4067,  4068,  4072,  4074,  4076,  4079,  4084
  4085,  4088,  4096,  4097,  4098,  4099,  4109,  4127,  4128,  4130,  4137,  4149,  4159,  4162,  4174,  4184
  4185,  4220,  4234,  4250,  4262,  4266,  4598,  4600,  4602,  4617,  4635,  4637,  4638,  4661,  4662,  4664
  4665,  4687,  4780,  4809,  4978,  5027,  5167,  5308,  5946,  7513,  7520,  7532, 11694, 11704, 11705, 11708
 11711, 11720, 11725, 11731, 11733, 11744, 11759, 11766, 11774, 11783, 11793, 11797, 11800, 11803, 11810, 11822
 11830, 11832, 11839, 11847, 11866, 11870, 12032, 12035, 12051, 12053, 12055, 12057
*Elset, elset="__general contact_gcs0_10_S4", internal, instance="layer 1/6-1"
   679,   857,   899,   901,   918,   947,   951,   968,  1065,  1095,  1235,  1272,  1279,  1289,  1317,  1329
  2317,  2939,  3333,  3336,  3754,  3778,  3831,  3854,  4020,  4021,  4024,  4025,  4026,  4029,  4030,  4035
  4038,  4041,  4043,  4045,  4050,  4061,  4065,  4082,  4112,  4118,  4131,  4142,  4170,  4175,  4183,  4189
  4194,  4198,  4200,  4209,  4213,  4224,  4226,  4229,  4236,  4240,  4248,  4251,  4254,  4259,  4279,  4289
  4295,  4297,  4299,  4636,  4774,  4810,  4916,  5054,  5079,  5200,  5577,  5593,  6427, 11655, 11825, 11871
 11872, 12036
*Elset, elset="__general contact_gcs0_10_S2", internal, instance="layer 1/6-1"
   854,   858,   897,   971,   974,  1265,  1287,  2083,  2759,  2907,  3260,  3308,  3334,  3768,  3857,  4017
  4023,  4036,  4100,  4103,  4114,  4117,  4119,  4135,  4164,  4181,  4182,  4188,  4195,  4202,  4204,  4207
  4208,  4210,  4212,  4214,  4222,  4228,  4230,  4238,  4239,  4242,  4255,  4275,  4281,  4640,  4655,  4785
  4943,  5007, 11644, 11647, 11650, 11651, 11660, 11661, 11664, 11673, 11747, 11753
*Surface, type=ELEMENT, name="_general contact_gcs0_10", internal
"__general contact_gcs0_10_S1", S1
"__general contact_gcs0_10_S3", S3
"__general contact_gcs0_10_S4", S4
"__general contact_gcs0_10_S2", S2
*Elset, elset="__general contact_gcs0_12_S2", internal, instance="layer 1/6-1"
 17193, 17895, 17897, 17898, 17900, 17903, 17904, 18078, 18134, 18143, 18144, 18151, 18152, 18156, 18214, 18222
 18228, 18247, 18257, 18458, 18564, 19054, 19163, 19238, 19467, 20092, 20398, 20524, 20869, 20877, 20943, 21101
 21104, 21111, 21115, 21116, 21117, 21118, 21120, 21127, 21130, 21131, 21137, 21140, 21144, 21150, 21152, 21171
 21179, 21186, 21226, 21230, 21231, 21234, 21238, 21239, 21241, 21244, 21245, 21255, 21257, 21262, 21269, 21275
 21278, 21282, 21289, 21302, 21305, 21316, 21327, 21333, 21345, 21350, 21358, 21385, 21396, 21410, 21412, 21416
 21741, 21744, 21763, 21820, 21849, 21930, 22137, 22139, 22231, 28906, 28907, 28909, 28915, 28916, 28918, 28922
 28923, 28927, 28936, 28938, 28941, 28950, 28951, 28953, 28961, 28963, 28964, 28968, 28977, 28981
*Elset, elset="__general contact_gcs0_12_S4", internal, instance="layer 1/6-1"
 17751, 17754, 17896, 17981, 18133, 18135, 18139, 18142, 18154, 18213, 18215, 18223, 18234, 18260, 18275, 18287
 18380, 18398, 18411, 18439, 18503, 18565, 18570, 19236, 19237, 19465, 19693, 20333, 20412, 20523, 20563, 20751
 20800, 20924, 20937, 20939, 20944, 20945, 21095, 21096, 21097, 21098, 21103, 21106, 21107, 21109, 21110, 21114
 21121, 21123, 21125, 21126, 21134, 21136, 21141, 21142, 21145, 21147, 21148, 21151, 21157, 21164, 21177, 21185
 21189, 21195, 21197, 21198, 21202, 21204, 21205, 21233, 21235, 21237, 21249, 21256, 21258, 21260, 21261, 21266
 21267, 21268, 21270, 21279, 21280, 21298, 21304, 21312, 21318, 21319, 21336, 21343, 21347, 21355, 21361, 21367
 21368, 21371, 21384, 21388, 21394, 21408, 21409, 21413, 21415, 21754, 21772, 21778, 21845, 21850, 22095, 22141
 28867, 28878, 28917, 28943, 28956
*Elset, elset="__general contact_gcs0_12_S1", internal, instance="layer 1/6-1"
 17752, 18132, 18153, 18212, 18217, 18227, 18229, 18277, 18278, 18288, 18297, 18299, 18311, 18312, 18353, 18378
 18381, 18389, 18397, 18412, 18446, 18466, 18500, 18502, 18897, 19053, 19919, 20380, 20381, 20434, 20550, 20562
 20595, 20596, 20638, 20674, 20688, 20709, 20796, 20842, 20897, 20926, 20946, 21113, 21119, 21122, 21149, 21159
 21162, 21163, 21166, 21167, 21169, 21174, 21175, 21178, 21180, 21184, 21187, 21188, 21190, 21191, 21192, 21193
 21194, 21208, 21243, 21246, 21247, 21248, 21250, 21252, 21263, 21272, 21273, 21274, 21281, 21283, 21285, 21286
 21287, 21290, 21293, 21295, 21297, 21303, 21306, 21307, 21313, 21315, 21317, 21320, 21321, 21322, 21325, 21330
 21334, 21335, 21338, 21339, 21342, 21344, 21346, 21348, 21353, 21356, 21359, 21364, 21370, 21372, 21375, 21379
 21381, 21392, 21405, 21406, 21414, 21735, 21737, 21749, 21815, 21846, 21897, 21911, 21928, 22143, 22144, 22170
 24505, 24568, 28770, 28771, 28828, 28834, 28839, 28842, 28851, 28854, 28865, 28876, 28877, 28965, 29124, 29126
 29129, 29136, 29140, 29146, 29147, 29152, 29164
*Elset, elset="__general contact_gcs0_12_S3", internal, instance="layer 1/6-1"
 18033, 18219, 18250, 18255, 18262, 18269, 18276, 18286, 18298, 18335, 18343, 18352, 18440, 18467, 18484, 19921
 20442, 20455, 20537, 20610, 20625, 20729, 20870, 20912, 20927, 20938, 21099, 21128, 21129, 21143, 21153, 21156
 21158, 21161, 21168, 21170, 21172, 21173, 21199, 21200, 21203, 21206, 21207, 21223, 21251, 21254, 21284, 21301
 21308, 21349, 21354, 21362, 21377, 21383, 21386, 21390, 21397, 21398, 21404, 21746, 21748, 21770, 21775, 21819
 21916, 21932, 21933, 22134, 22934, 23411, 28769, 28820, 28822, 28825, 28830, 28832, 28837, 28840, 28844, 28858
 28860, 28862, 28866, 28868, 28874, 28875, 28879, 28886, 28905, 28911, 28939, 28940, 29123, 29131, 29149, 29154
 29157, 29161
*Surface, type=ELEMENT, name="_general contact_gcs0_12", internal
"__general contact_gcs0_12_S2", S2
"__general contact_gcs0_12_S4", S4
"__general contact_gcs0_12_S1", S1
"__general contact_gcs0_12_S3", S3
*Elset, elset="__general contact_gcs0_14_S1", internal, instance="layer 1/6-1"
 34596, 34597, 34610, 34629, 34642, 34660, 34667, 34668, 34713, 34786, 34789, 34832, 34833, 41259, 41265, 41282
 41285,
*Elset, elset="__general contact_gcs0_14_S3", internal, instance="layer 1/6-1"
 34598, 34641, 34643, 34644, 34659, 34712, 34714, 34759, 41279, 41283
*Elset, elset="__general contact_gcs0_14_S4", internal, instance="layer 1/6-1"
 34646, 34835
*Elset, elset="__general contact_gcs0_14_S2", internal, instance="layer 1/6-1"
 34657, 34834
*Surface, type=ELEMENT, name="_general contact_gcs0_14", internal
"__general contact_gcs0_14_S1", S1
"__general contact_gcs0_14_S3", S3
"__general contact_gcs0_14_S4", S4
"__general contact_gcs0_14_S2", S2
*Elset, elset="__general contact_gcs0_16_S3", internal, instance="layer 1/6-1"
 34310, 34674, 34675
*Elset, elset="__general contact_gcs0_16_S1", internal, instance="layer 1/6-1"
 34664,
*Elset, elset="__general contact_gcs0_16_S4", internal, instance="layer 1/6-1"
 34673, 34691, 34719, 34720, 34721, 34728, 35123
*Elset, elset="__general contact_gcs0_16_S2", internal, instance="layer 1/6-1"
 34724, 34726, 34727, 34750, 41518
*Surface, type=ELEMENT, name="_general contact_gcs0_16", internal
"__general contact_gcs0_16_S3", S3
"__general contact_gcs0_16_S1", S1
"__general contact_gcs0_16_S4", S4
"__general contact_gcs0_16_S2", S2
*Elset, elset="__general contact_gcs0_17_S3", internal, instance="layer 1/6-1"
 43376, 43392, 43395, 43410, 49769
*Elset, elset="__general contact_gcs0_17_S2", internal, instance="layer 1/6-1"
 43393, 43835
*Elset, elset="__general contact_gcs0_17_S4", internal, instance="layer 1/6-1"
 43394, 43598, 43599
*Elset, elset="__general contact_gcs0_17_S1", internal, instance="layer 1/6-1"
 43409, 43419, 43509, 43601, 43602, 49756
*Surface, type=ELEMENT, name="_general contact_gcs0_17", internal
"__general contact_gcs0_17_S3", S3
"__general contact_gcs0_17_S2", S2
"__general contact_gcs0_17_S4", S4
"__general contact_gcs0_17_S1", S1
*Elset, elset="__general contact_gcs0_19_S4", internal, instance="layer 1/6-1"
 43384, 43385, 43446, 43448, 43469, 43503, 43606, 49734
*Elset, elset="__general contact_gcs0_19_S2", internal, instance="layer 1/6-1"
 43412, 43420, 43431, 43440, 43447, 43459, 43555, 43605, 43607, 43608, 49739, 49765
*Elset, elset="__general contact_gcs0_19_S3", internal, instance="layer 1/6-1"
 43432, 43450, 43457, 43467, 43472, 43539, 43549, 49752
*Elset, elset="__general contact_gcs0_19_S1", internal, instance="layer 1/6-1"
 43466, 43547, 49764
*Surface, type=ELEMENT, name="_general contact_gcs0_19", internal
"__general contact_gcs0_19_S4", S4
"__general contact_gcs0_19_S2", S2
"__general contact_gcs0_19_S3", S3
"__general contact_gcs0_19_S1", S1
*End Assembly
** 
** MATERIALS
** 
*Material, name=elastomer
*Density
1175.,
*Hyperelastic, mooney-rivlin
<C10>,<C01>,0.
*Material, name=steel
*Density
7850.,
*Elastic
 2.1e+11, 0.3
** 
** INTERACTION PROPERTIES
** 
*Surface Interaction, name=frict
1.,
*Friction, slip tolerance=0.005
 1.045,
** 
** BOUNDARY CONDITIONS
** 
** Name: fix_all_nodes Type: Symmetry/Antisymmetry/Encastre
*Boundary
plate-1.all_nodes, XSYMM
** Name: fix_all_sides Type: Symmetry/Antisymmetry/Encastre
*Boundary
Set-2, XSYMM
** Name: fix_inner_layer Type: Symmetry/Antisymmetry/Encastre
*Boundary
Set-33, ENCASTRE
** 
** INTERACTIONS
** 
** Interaction: general contact
*Contact
*Contact Inclusions, ALL EXTERIOR
*Contact Property Assignment
 ,  , frict
*Surface Property Assignment, property=GEOMETRIC CORRECTION
"_general contact_gcs0_10", Circumferential, 0.04, 0.08625
"_general contact_gcs0_12", Circumferential, 0.04, 0.08625
"_general contact_gcs0_14", Circumferential, 0.04, 0.08625
"_general contact_gcs0_16", Circumferential, 0.04, 0.08625
"_general contact_gcs0_17", Circumferential, 0.04, 0.08625
"_general contact_gcs0_19", Circumferential, 0.04, 0.08625
** ----------------------------------------------------------------
** 
** STEP: press
** 
*Step, name=press, nlgeom=YES
*Static
0.01, 1., 1e-05, 0.01
** 
** BOUNDARY CONDITIONS
** 
** Name: press Type: Displacement/Rotation
*Boundary
Set-32, 1, 1
Set-32, 2, 2, 0.003
Set-32, 6, 6
** 
** OUTPUT REQUESTS
** 
*Restart, write, frequency=0
** 
** FIELD OUTPUT: F-Output-1
** 
*Output, field, variable=PRESELECT
** 
** HISTORY OUTPUT: H-Output-3
** 
*Output, history
*Contact Output
CAREA, CFT2
** 
** HISTORY OUTPUT: H-Output-1
** 
*Node Output, nset=plate-1.one_node
U2, 
** 
** HISTORY OUTPUT: H-Output-2
** 
*Node Output, nset=plate-1.under_node
CF2, RF2, U2
*End Step
