*Heading
** Job name: PSE Model name: Model-1
** Generated by: Abaqus/CAE 2022
*Preprint, echo=NO, model=NO, history=NO, contact=NO
**
*PARAMETER
E=210e9
nu=0.3

** PARTS
**
*Part, name=Part-1
*Node
      1,  0.200000003,  0.200000003,           5.
      2,  0.200000003,  0.100000001,           5.
      3,  0.200000003,           0.,           5.
      4,  0.200000003,  0.200000003,    4.9000001
      5,  0.200000003,  0.100000001,    4.9000001
      6,  0.200000003,           0.,    4.9000001
      7,  0.200000003,  0.200000003,   4.80000019
      8,  0.200000003,  0.100000001,   4.80000019
      9,  0.200000003,           0.,   4.80000019
     10,  0.200000003,  0.200000003,   4.69999981
     11,  0.200000003,  0.100000001,   4.69999981
     12,  0.200000003,           0.,   4.69999981
     13,  0.200000003,  0.200000003,    4.5999999
     14,  0.200000003,  0.100000001,    4.5999999
     15,  0.200000003,           0.,    4.5999999
     16,  0.200000003,  0.200000003,          4.5
     17,  0.200000003,  0.100000001,          4.5
     18,  0.200000003,           0.,          4.5
     19,  0.200000003,  0.200000003,    4.4000001
     20,  0.200000003,  0.100000001,    4.4000001
** ... 1501 like lines cut
*Element, type=C3D20R
  1,  154,  155,  158,  157,    1,    2,    5,    4,  463,  462,  461,  460,  464,  465,  466,
      467,  469,  468,  470,  471
  2,  155,  156,  159,  158,    2,    3,    6,    5,  474,  473,  472,  462,  475,  476,  477,
      465,  468,  478,  479,  470
  3,  157,  158,  161,  160,    4,    5,    8,    7,  461,  482,  481,  480,  466,  483,  484,
      485,  471,  470,  486,  487
  4,  158,  159,  162,  161,    5,    6,    9,    8,  472,  489,  488,  482,  477,  490,  491,
      483,  470,  479,  492,  486
  5,  160,  161,  164,  163,    7,    8,   11,   10,  481,  495,  494,  493,  484,  496,  497,
      498,  487,  486,  499,  500
  6,  161,  162,  165,  164,    8,    9,   12,   11,  488,  502,  501,  495,  491,  503,  504,
      496,  486,  492,  505,  499
  7,  163,  164,  167,  166,   10,   11,   14,   13,  494,  508,  507,  506,  497,  509,  510,
      511,  500,  499,  512,  513
  8,  164,  165,  168,  167,   11,   12,   15,   14,  501,  515,  514,  508,  504,  516,  517,
      509,  499,  505,  518,  512
  9,  166,  167,  170,  169,   13,   14,   17,   16,  507,  521,  520,  519,  510,  522,  523,
      524,  513,  512,  525,  526
 10,  167,  168,  171,  170,   14,   15,   18,   17,  514,  528,  527,  521,  517,  529,  530,
      522,  512,  518,  531,  525
** ... 380 like lines cut
*Nset, nset=Set-1, generate
    1,  1521,     1
*Elset, elset=Set-1, generate
   1,  200,    1
** Section: Section-1
*Solid Section, elset=Set-1, material=Material-1
,
*End Part
**  
**
** ASSEMBLY
**
*Assembly, name=Assembly
**  
*Instance, name=Part-1-1, part=Part-1
*End Instance
**  
*Nset, nset=Set-1, instance=Part-1-1
 154,
*Nset, nset=_PickedSet6, internal, instance=Part-1-1
  151,  152,  153,  304,  305,  306,  457,  458,  459, 1105, 1108, 1110, 1111, 1112, 1115, 1116
 1515, 1517, 1518, 1519, 1521
*Elset, elset=_PickedSet6, internal, instance=Part-1-1
  99, 100, 199, 200
*Elset, elset=__PickedSurf5_S6, internal, instance=Part-1-1, generate
   1,  199,    2
*Surface, type=ELEMENT, name=_PickedSurf5, internal
__PickedSurf5_S6, S6
*End Assembly
** 
** MATERIALS
** 
*Material, name=Material-1
*Density
7850.,
*Elastic
<E>, <nu>
*Plastic
 2.4e+08,0.
** 
** BOUNDARY CONDITIONS
** 
** Name: BC-1 Type: Displacement/Rotation
*Boundary
_PickedSet6, 1, 1
_PickedSet6, 2, 2
_PickedSet6, 3, 3
_PickedSet6, 4, 4
_PickedSet6, 5, 5
_PickedSet6, 6, 6
** ----------------------------------------------------------------
** 
** STEP: Step-1
** 
*Step, name=Step-1, nlgeom=NO, inc=1000
*Static
0.1, 1., 1e-05, 1.
** 
** LOADS
** 
** Name: Load-1   Type: Pressure
*Dsload
_PickedSurf5, P, 50000.
** 
** OUTPUT REQUESTS
** 
*Restart, write, frequency=0
** 
** FIELD OUTPUT: F-Output-1
** 
*Output, field, variable=PRESELECT
** 
** HISTORY OUTPUT: H-Output-2
** 
*Output, history
*Node Output, nset=Set-1
RF2, U1, U2, U3, UR1, UR2, UR3
** 
** HISTORY OUTPUT: H-Output-1
** 
*Output, history, variable=PRESELECT
*End Step
