*Heading
** Job name: curve_test_MR1 Model name: Model-1
** Generated by: Abaqus/CAE 2022
*Preprint, echo=NO, model=NO, history=NO, contact=NO
**
*PARAMETER
C10=
C1=

** PARTS
**
*Part, name="layer 1/6"
*Node  
      1, 0.0166132469, -0.0680000037
      2,           0., -0.0680000037
      3,           0., -0.0700000003
      4, -0.0166132469, -0.0680000037
      5, 0.0165632069, -0.0680000037
      6, 0.0165131688, -0.0680000037
      7, 0.0164631288, -0.0680000037
      8, 0.0164130889, -0.0680000037
      9, 0.0163630489, -0.0680000037
     10,  0.016313009, -0.0680000037
     11,  0.016262969, -0.0680000037
     12,  0.016212929, -0.0680000037
     13, 0.0161628891, -0.0680000037
     14, 0.0161128491, -0.0680000037
     15, 0.0160628092, -0.0680000037
     16, 0.0160127692, -0.0680000037
     17, 0.0159627292, -0.0680000037
     18, 0.0159126893, -0.0680000037
     19, 0.0158626493, -0.0680000037
     20, 0.0158126093, -0.0680000037
** ... 24565 like lines cut
*Element, type=CPS3
  1, 1505, 3801, 3800
  2, 4927, 2196, 1968
  3, 6231, 6527, 6471
  4, 1562, 3787, 3786
  5, 7152, 7214, 3691
  6, 4196, 4541, 1508
  7, 3740, 3644, 3713
  8, 4238, 4150, 1861
  9, 5451, 5003, 2415
 10, 5076, 5077, 5193
 11, 5293, 2662, 2311
 12, 5585, 2624, 2858
 13, 5491, 2597, 5488
 14, 5778, 2759, 2662
 15, 2865, 2695, 2560
 16, 6391, 3400, 3228
 17, 6680, 3389, 3103
 18, 3468, 3382, 3448
 19, 3645, 6386, 3012
 20, 2558, 5852, 2560
** ... 856 like lines cut
*Element, type=CPS4R
 246,  707,  708,    5,    6
 247,  705,  706,    7,    8
 248,  702,  703,   10,   11
 249,  700,  701, 3792, 3791
 250,  698, 1485, 3794,  697
 251,   15,   16, 1485, 3793
 252,   17,   18, 3725, 4192
 253, 4191, 3796, 3795, 3725
 254, 4193,  696,  697, 3794
 255,  694,  695, 3795, 3796
 256,   20,   21, 4190, 1494
 257, 3799, 3798, 1612, 4200
 258, 1642, 3800,  689,  690
 259, 3804, 3803, 4210, 4211
 260,   28,   29, 1884, 4184
 261, 1613, 4183,   30,   31
 262, 4181, 1610,   33,   34
 263,  682,  683, 3663, 3806
 264, 4205, 1610, 1717, 4213
 265, 4214, 1525, 3807, 1717
** ... 23727 like lines cut
*Nset, nset=Set-1, generate
     1,  24585,      1
*Elset, elset=Set-1, generate
     1,  24623,      1
** Section: elastomer
*Solid Section, elset=Set-1, material=elastomer
,
*End Part
**  
*Part, name=plate
*Node
      1, 0.0399999991, 0.00625000009
      2, 0.0399999991, 0.0162499994
      3,           0., 0.0162499994
      4,           0., 0.00625000009
      5, 0.0799999982, 0.00625000009
      6, 0.0799999982, 0.0162499994
      7, 0.0399999991, 0.00724999979
      8, 0.0399999991, 0.00824999996
      9, 0.0399999991, 0.00925000012
     10, 0.0399999991, 0.0102500003
     11, 0.0399999991, 0.0112500004
     12, 0.0399999991, 0.0122499997
     13, 0.0399999991, 0.0132499998
     14, 0.0399999991,      0.01425
     15, 0.0399999991, 0.0152500002
     16, 0.0390000008, 0.0162499994
     17, 0.0379999988, 0.0162499994
     18, 0.0370000005, 0.0162499994
     19, 0.0359999985, 0.0162499994
     20, 0.0350000001, 0.0162499994
** ... 871 like lines cut
*Element, type=CPS4R
  1,   1,   7, 190, 102
  2,   7,   8, 191, 190
  3,   8,   9, 192, 191
  4,   9,  10, 193, 192
  5,  10,  11, 194, 193
  6,  11,  12, 195, 194
  7,  12,  13, 196, 195
  8,  13,  14, 197, 196
  9,  14,  15, 198, 197
 10,  15,   2,  16, 198
 11, 102, 190, 199, 101
 12, 190, 191, 200, 199
 13, 191, 192, 201, 200
 14, 192, 193, 202, 201
 15, 193, 194, 203, 202
 16, 194, 195, 204, 203
 17, 195, 196, 205, 204
 18, 196, 197, 206, 205
 19, 197, 198, 207, 206
 20, 198,  16,  17, 207
** ... 780 like lines cut
*Nset, nset=Set-1, generate
   1,  891,    1
*Elset, elset=Set-1, generate
   1,  800,    1
*Nset, nset=all_nodes, generate
   1,  891,    1
*Nset, nset=under_node
 1,
*Nset, nset=one_node
 2,
*Elset, elset="_top surrface_S2", internal, generate
  10,  400,   10
*Elset, elset="_top surrface_S4", internal, generate
 401,  791,   10
*Surface, type=ELEMENT, name="top surrface"
"_top surrface_S2", S2
"_top surrface_S4", S4
*Elset, elset="_bottom surface_S4", internal, generate
   1,  391,   10
*Elset, elset="_bottom surface_S2", internal, generate
 410,  800,   10
*Surface, type=ELEMENT, name="bottom surface"
"_bottom surface_S4", S4
"_bottom surface_S2", S2
** Section: steel
*Solid Section, elset=Set-1, material=steel
,
*End Part
**  
**
** ASSEMBLY
**
*Assembly, name=Assembly
**  
*Instance, name=plate-1, part=plate
*End Instance
**  
*Instance, name="layer 1/6-1", part="layer 1/6"
        0.04,      0.08625,           0.
*End Instance
**  
*Node
      1, 0.0399999991, 0.00625000009,           0.
*Node
      2,           0., 0.0162499994,           0.
*Nset, nset=Set-2, instance=plate-1
   1,   2,   3,   4,   5,   6,  16,  17,  18,  19,  20,  21,  22,  23,  24,  25
  26,  27,  28,  29,  30,  31,  32,  33,  34,  35,  36,  37,  38,  39,  40,  41
  42,  43,  44,  45,  46,  47,  48,  49,  50,  51,  52,  53,  54,  64,  65,  66
  67,  68,  69,  70,  71,  72,  73,  74,  75,  76,  77,  78,  79,  80,  81,  82
  83,  84,  85,  86,  87,  88,  89,  90,  91,  92,  93,  94,  95,  96,  97,  98
  99, 100, 101, 102, 103, 104, 105, 106, 107, 108, 109, 110, 111, 112, 113, 114
 115, 116, 117, 118, 119, 120, 121, 122, 123, 124, 125, 126, 127, 128, 129, 130
 131, 132, 133, 134, 135, 136, 137, 138, 139, 140, 141, 151, 152, 153, 154, 155
 156, 157, 158, 159, 160, 161, 162, 163, 164, 165, 166, 167, 168, 169, 170, 171
 172, 173, 174, 175, 176, 177, 178, 179, 180, 181, 182, 183, 184, 185, 186, 187
 188, 189
*Elset, elset=Set-2, instance=plate-1
   1,  10,  11,  20,  21,  30,  31,  40,  41,  50,  51,  60,  61,  70,  71,  80
  81,  90,  91, 100, 101, 110, 111, 120, 121, 130, 131, 140, 141, 150, 151, 160
 161, 170, 171, 180, 181, 190, 191, 200, 201, 210, 211, 220, 221, 230, 231, 240
 241, 250, 251, 260, 261, 270, 271, 280, 281, 290, 291, 300, 301, 310, 311, 320
 321, 330, 331, 340, 341, 350, 351, 360, 361, 370, 371, 380, 381, 390, 391, 400
 401, 410, 411, 420, 421, 430, 431, 440, 441, 450, 451, 460, 461, 470, 471, 480
 481, 490, 491, 500, 501, 510, 511, 520, 521, 530, 531, 540, 541, 550, 551, 560
 561, 570, 571, 580, 581, 590, 591, 600, 601, 610, 611, 620, 621, 630, 631, 640
 641, 650, 651, 660, 661, 670, 671, 680, 681, 690, 691, 700, 701, 710, 711, 720
 721, 730, 731, 740, 741, 750, 751, 760, 761, 770, 771, 780, 781, 790, 791, 800
*Nset, nset=Set-3, instance=plate-1
   2,   3,   6,  16,  17,  18,  19,  20,  21,  22,  23,  24,  25,  26,  27,  28
  29,  30,  31,  32,  33,  34,  35,  36,  37,  38,  39,  40,  41,  42,  43,  44
  45,  46,  47,  48,  49,  50,  51,  52,  53,  54, 151, 152, 153, 154, 155, 156
 157, 158, 159, 160, 161, 162, 163, 164, 165, 166, 167, 168, 169, 170, 171, 172
 173, 174, 175, 176, 177, 178, 179, 180, 181, 182, 183, 184, 185, 186, 187, 188
 189,
*Elset, elset=Set-3, instance=plate-1
  10,  20,  30,  40,  50,  60,  70,  80,  90, 100, 110, 120, 130, 140, 150, 160
 170, 180, 190, 200, 210, 220, 230, 240, 250, 260, 270, 280, 290, 300, 310, 320
 330, 340, 350, 360, 370, 380, 390, 400, 401, 411, 421, 431, 441, 451, 461, 471
 481, 491, 501, 511, 521, 531, 541, 551, 561, 571, 581, 591, 601, 611, 621, 631
 641, 651, 661, 671, 681, 691, 701, 711, 721, 731, 741, 751, 761, 771, 781, 791
*Nset, nset=Set-4, instance=plate-1
   2,   3,   6,  16,  17,  18,  19,  20,  21,  22,  23,  24,  25,  26,  27,  28
  29,  30,  31,  32,  33,  34,  35,  36,  37,  38,  39,  40,  41,  42,  43,  44
  45,  46,  47,  48,  49,  50,  51,  52,  53,  54, 151, 152, 153, 154, 155, 156
 157, 158, 159, 160, 161, 162, 163, 164, 165, 166, 167, 168, 169, 170, 171, 172
 173, 174, 175, 176, 177, 178, 179, 180, 181, 182, 183, 184, 185, 186, 187, 188
 189,
*Elset, elset=Set-4, instance=plate-1
  10,  20,  30,  40,  50,  60,  70,  80,  90, 100, 110, 120, 130, 140, 150, 160
 170, 180, 190, 200, 210, 220, 230, 240, 250, 260, 270, 280, 290, 300, 310, 320
 330, 340, 350, 360, 370, 380, 390, 400, 401, 411, 421, 431, 441, 451, 461, 471
 481, 491, 501, 511, 521, 531, 541, 551, 561, 571, 581, 591, 601, 611, 621, 631
 641, 651, 661, 671, 681, 691, 701, 711, 721, 731, 741, 751, 761, 771, 781, 791
*Nset, nset=Set-5, instance=plate-1
 1,
*Nset, nset=Set-6, instance=plate-1
 1,
*Nset, nset=Set-13, instance="layer 1/6-1"
 12897, 12898, 12899, 12900, 12901, 12902, 12903, 12904, 12905, 12906, 12907, 12908, 12909, 12910, 12911, 12912
 12913, 12914, 12915, 12916, 12917, 12918, 12919, 12920, 12921, 12922, 12923, 12924, 12925, 12926, 12989, 12990
 12991, 12992, 12993, 12994, 12995, 12996, 12997, 12998, 12999, 13000, 13001, 13002, 13003, 13004, 13005, 13006
 13007, 13008, 13009, 13010, 13011, 13012, 13013, 13014, 13015, 13016, 13017, 13018, 13019, 13020, 13021
*Elset, elset=Set-13, instance="layer 1/6-1"
 12676, 12678, 12692, 12696, 12697, 12716, 12717, 12720, 12726, 12728, 12729, 12730, 12731, 12755, 12764, 12765
 12766, 12842, 12866, 12867, 12874, 12915, 12916, 12918, 12950, 12951, 12952, 12953, 12954, 17365, 17367, 18928
 18929, 18946, 18947, 18948, 18951, 18978, 18989, 18990, 18991, 18992, 19000, 19002, 19013, 19025, 19027, 19028
 19053, 19120, 19130, 19131, 19145, 19148, 19149, 19151, 19196, 19197, 19198, 19199, 19200, 23432
*Nset, nset=Set-14, instance=plate-1
   2,   3,   6,  16,  17,  18,  19,  20,  21,  22,  23,  24,  25,  26,  27,  28
  29,  30,  31,  32,  33,  34,  35,  36,  37,  38,  39,  40,  41,  42,  43,  44
  45,  46,  47,  48,  49,  50,  51,  52,  53,  54, 151, 152, 153, 154, 155, 156
 157, 158, 159, 160, 161, 162, 163, 164, 165, 166, 167, 168, 169, 170, 171, 172
 173, 174, 175, 176, 177, 178, 179, 180, 181, 182, 183, 184, 185, 186, 187, 188
 189,
*Elset, elset=Set-14, instance=plate-1
  10,  20,  30,  40,  50,  60,  70,  80,  90, 100, 110, 120, 130, 140, 150, 160
 170, 180, 190, 200, 210, 220, 230, 240, 250, 260, 270, 280, 290, 300, 310, 320
 330, 340, 350, 360, 370, 380, 390, 400, 401, 411, 421, 431, 441, 451, 461, 471
 481, 491, 501, 511, 521, 531, 541, 551, 561, 571, 581, 591, 601, 611, 621, 631
 641, 651, 661, 671, 681, 691, 701, 711, 721, 731, 741, 751, 761, 771, 781, 791
*Nset, nset=Set-15, instance=plate-1
   2,   3,   6,  16,  17,  18,  19,  20,  21,  22,  23,  24,  25,  26,  27,  28
  29,  30,  31,  32,  33,  34,  35,  36,  37,  38,  39,  40,  41,  42,  43,  44
  45,  46,  47,  48,  49,  50,  51,  52,  53,  54, 151, 152, 153, 154, 155, 156
 157, 158, 159, 160, 161, 162, 163, 164, 165, 166, 167, 168, 169, 170, 171, 172
 173, 174, 175, 176, 177, 178, 179, 180, 181, 182, 183, 184, 185, 186, 187, 188
 189,
*Elset, elset=Set-15, instance=plate-1
  10,  20,  30,  40,  50,  60,  70,  80,  90, 100, 110, 120, 130, 140, 150, 160
 170, 180, 190, 200, 210, 220, 230, 240, 250, 260, 270, 280, 290, 300, 310, 320
 330, 340, 350, 360, 370, 380, 390, 400, 401, 411, 421, 431, 441, 451, 461, 471
 481, 491, 501, 511, 521, 531, 541, 551, 561, 571, 581, 591, 601, 611, 621, 631
 641, 651, 661, 671, 681, 691, 701, 711, 721, 731, 741, 751, 761, 771, 781, 791
*Nset, nset=Set-16, instance=plate-1
   2,   3,   6,  16,  17,  18,  19,  20,  21,  22,  23,  24,  25,  26,  27,  28
  29,  30,  31,  32,  33,  34,  35,  36,  37,  38,  39,  40,  41,  42,  43,  44
  45,  46,  47,  48,  49,  50,  51,  52,  53,  54, 151, 152, 153, 154, 155, 156
 157, 158, 159, 160, 161, 162, 163, 164, 165, 166, 167, 168, 169, 170, 171, 172
 173, 174, 175, 176, 177, 178, 179, 180, 181, 182, 183, 184, 185, 186, 187, 188
 189,
*Elset, elset=Set-16, instance=plate-1
  10,  20,  30,  40,  50,  60,  70,  80,  90, 100, 110, 120, 130, 140, 150, 160
 170, 180, 190, 200, 210, 220, 230, 240, 250, 260, 270, 280, 290, 300, 310, 320
 330, 340, 350, 360, 370, 380, 390, 400, 401, 411, 421, 431, 441, 451, 461, 471
 481, 491, 501, 511, 521, 531, 541, 551, 561, 571, 581, 591, 601, 611, 621, 631
 641, 651, 661, 671, 681, 691, 701, 711, 721, 731, 741, 751, 761, 771, 781, 791
*Nset, nset=Set-17, instance=plate-1
   2,   3,   6,  16,  17,  18,  19,  20,  21,  22,  23,  24,  25,  26,  27,  28
  29,  30,  31,  32,  33,  34,  35,  36,  37,  38,  39,  40,  41,  42,  43,  44
  45,  46,  47,  48,  49,  50,  51,  52,  53,  54, 151, 152, 153, 154, 155, 156
 157, 158, 159, 160, 161, 162, 163, 164, 165, 166, 167, 168, 169, 170, 171, 172
 173, 174, 175, 176, 177, 178, 179, 180, 181, 182, 183, 184, 185, 186, 187, 188
 189,
*Elset, elset=Set-17, instance=plate-1
  10,  20,  30,  40,  50,  60,  70,  80,  90, 100, 110, 120, 130, 140, 150, 160
 170, 180, 190, 200, 210, 220, 230, 240, 250, 260, 270, 280, 290, 300, 310, 320
 330, 340, 350, 360, 370, 380, 390, 400, 401, 411, 421, 431, 441, 451, 461, 471
 481, 491, 501, 511, 521, 531, 541, 551, 561, 571, 581, 591, 601, 611, 621, 631
 641, 651, 661, 671, 681, 691, 701, 711, 721, 731, 741, 751, 761, 771, 781, 791
*Nset, nset=Set-18, instance=plate-1
   2,   3,   6,  16,  17,  18,  19,  20,  21,  22,  23,  24,  25,  26,  27,  28
  29,  30,  31,  32,  33,  34,  35,  36,  37,  38,  39,  40,  41,  42,  43,  44
  45,  46,  47,  48,  49,  50,  51,  52,  53,  54, 151, 152, 153, 154, 155, 156
 157, 158, 159, 160, 161, 162, 163, 164, 165, 166, 167, 168, 169, 170, 171, 172
 173, 174, 175, 176, 177, 178, 179, 180, 181, 182, 183, 184, 185, 186, 187, 188
 189,
*Elset, elset=Set-18, instance=plate-1
  10,  20,  30,  40,  50,  60,  70,  80,  90, 100, 110, 120, 130, 140, 150, 160
 170, 180, 190, 200, 210, 220, 230, 240, 250, 260, 270, 280, 290, 300, 310, 320
 330, 340, 350, 360, 370, 380, 390, 400, 401, 411, 421, 431, 441, 451, 461, 471
 481, 491, 501, 511, 521, 531, 541, 551, 561, 571, 581, 591, 601, 611, 621, 631
 641, 651, 661, 671, 681, 691, 701, 711, 721, 731, 741, 751, 761, 771, 781, 791
*Nset, nset=Set-19, instance=plate-1
   2,   3,   6,  16,  17,  18,  19,  20,  21,  22,  23,  24,  25,  26,  27,  28
  29,  30,  31,  32,  33,  34,  35,  36,  37,  38,  39,  40,  41,  42,  43,  44
  45,  46,  47,  48,  49,  50,  51,  52,  53,  54, 151, 152, 153, 154, 155, 156
 157, 158, 159, 160, 161, 162, 163, 164, 165, 166, 167, 168, 169, 170, 171, 172
 173, 174, 175, 176, 177, 178, 179, 180, 181, 182, 183, 184, 185, 186, 187, 188
 189,
*Elset, elset=Set-19, instance=plate-1
  10,  20,  30,  40,  50,  60,  70,  80,  90, 100, 110, 120, 130, 140, 150, 160
 170, 180, 190, 200, 210, 220, 230, 240, 250, 260, 270, 280, 290, 300, 310, 320
 330, 340, 350, 360, 370, 380, 390, 400, 401, 411, 421, 431, 441, 451, 461, 471
 481, 491, 501, 511, 521, 531, 541, 551, 561, 571, 581, 591, 601, 611, 621, 631
 641, 651, 661, 671, 681, 691, 701, 711, 721, 731, 741, 751, 761, 771, 781, 791
*Nset, nset=Set-20, instance=plate-1
   2,   3,   6,  16,  17,  18,  19,  20,  21,  22,  23,  24,  25,  26,  27,  28
  29,  30,  31,  32,  33,  34,  35,  36,  37,  38,  39,  40,  41,  42,  43,  44
  45,  46,  47,  48,  49,  50,  51,  52,  53,  54, 151, 152, 153, 154, 155, 156
 157, 158, 159, 160, 161, 162, 163, 164, 165, 166, 167, 168, 169, 170, 171, 172
 173, 174, 175, 176, 177, 178, 179, 180, 181, 182, 183, 184, 185, 186, 187, 188
 189,
*Elset, elset=Set-20, instance=plate-1
  10,  20,  30,  40,  50,  60,  70,  80,  90, 100, 110, 120, 130, 140, 150, 160
 170, 180, 190, 200, 210, 220, 230, 240, 250, 260, 270, 280, 290, 300, 310, 320
 330, 340, 350, 360, 370, 380, 390, 400, 401, 411, 421, 431, 441, 451, 461, 471
 481, 491, 501, 511, 521, 531, 541, 551, 561, 571, 581, 591, 601, 611, 621, 631
 641, 651, 661, 671, 681, 691, 701, 711, 721, 731, 741, 751, 761, 771, 781, 791
*Nset, nset=Set-21, instance=plate-1
   2,   3,   6,  16,  17,  18,  19,  20,  21,  22,  23,  24,  25,  26,  27,  28
  29,  30,  31,  32,  33,  34,  35,  36,  37,  38,  39,  40,  41,  42,  43,  44
  45,  46,  47,  48,  49,  50,  51,  52,  53,  54, 151, 152, 153, 154, 155, 156
 157, 158, 159, 160, 161, 162, 163, 164, 165, 166, 167, 168, 169, 170, 171, 172
 173, 174, 175, 176, 177, 178, 179, 180, 181, 182, 183, 184, 185, 186, 187, 188
 189,
*Elset, elset=Set-21, instance=plate-1
  10,  20,  30,  40,  50,  60,  70,  80,  90, 100, 110, 120, 130, 140, 150, 160
 170, 180, 190, 200, 210, 220, 230, 240, 250, 260, 270, 280, 290, 300, 310, 320
 330, 340, 350, 360, 370, 380, 390, 400, 401, 411, 421, 431, 441, 451, 461, 471
 481, 491, 501, 511, 521, 531, 541, 551, 561, 571, 581, 591, 601, 611, 621, 631
 641, 651, 661, 671, 681, 691, 701, 711, 721, 731, 741, 751, 761, 771, 781, 791
*Nset, nset=Set-22, instance=plate-1
   2,   3,   6,  16,  17,  18,  19,  20,  21,  22,  23,  24,  25,  26,  27,  28
  29,  30,  31,  32,  33,  34,  35,  36,  37,  38,  39,  40,  41,  42,  43,  44
  45,  46,  47,  48,  49,  50,  51,  52,  53,  54, 151, 152, 153, 154, 155, 156
 157, 158, 159, 160, 161, 162, 163, 164, 165, 166, 167, 168, 169, 170, 171, 172
 173, 174, 175, 176, 177, 178, 179, 180, 181, 182, 183, 184, 185, 186, 187, 188
 189,
*Elset, elset=Set-22, instance=plate-1
  10,  20,  30,  40,  50,  60,  70,  80,  90, 100, 110, 120, 130, 140, 150, 160
 170, 180, 190, 200, 210, 220, 230, 240, 250, 260, 270, 280, 290, 300, 310, 320
 330, 340, 350, 360, 370, 380, 390, 400, 401, 411, 421, 431, 441, 451, 461, 471
 481, 491, 501, 511, 521, 531, 541, 551, 561, 571, 581, 591, 601, 611, 621, 631
 641, 651, 661, 671, 681, 691, 701, 711, 721, 731, 741, 751, 761, 771, 781, 791
*Nset, nset=Set-23, instance=plate-1
   2,   3,   6,  16,  17,  18,  19,  20,  21,  22,  23,  24,  25,  26,  27,  28
  29,  30,  31,  32,  33,  34,  35,  36,  37,  38,  39,  40,  41,  42,  43,  44
  45,  46,  47,  48,  49,  50,  51,  52,  53,  54, 151, 152, 153, 154, 155, 156
 157, 158, 159, 160, 161, 162, 163, 164, 165, 166, 167, 168, 169, 170, 171, 172
 173, 174, 175, 176, 177, 178, 179, 180, 181, 182, 183, 184, 185, 186, 187, 188
 189,
*Elset, elset=Set-23, instance=plate-1
  10,  20,  30,  40,  50,  60,  70,  80,  90, 100, 110, 120, 130, 140, 150, 160
 170, 180, 190, 200, 210, 220, 230, 240, 250, 260, 270, 280, 290, 300, 310, 320
 330, 340, 350, 360, 370, 380, 390, 400, 401, 411, 421, 431, 441, 451, 461, 471
 481, 491, 501, 511, 521, 531, 541, 551, 561, 571, 581, 591, 601, 611, 621, 631
 641, 651, 661, 671, 681, 691, 701, 711, 721, 731, 741, 751, 761, 771, 781, 791
*Nset, nset=Set-24, instance=plate-1
   2,   3,   6,  16,  17,  18,  19,  20,  21,  22,  23,  24,  25,  26,  27,  28
  29,  30,  31,  32,  33,  34,  35,  36,  37,  38,  39,  40,  41,  42,  43,  44
  45,  46,  47,  48,  49,  50,  51,  52,  53,  54, 151, 152, 153, 154, 155, 156
 157, 158, 159, 160, 161, 162, 163, 164, 165, 166, 167, 168, 169, 170, 171, 172
 173, 174, 175, 176, 177, 178, 179, 180, 181, 182, 183, 184, 185, 186, 187, 188
 189,
*Elset, elset=Set-24, instance=plate-1
  10,  20,  30,  40,  50,  60,  70,  80,  90, 100, 110, 120, 130, 140, 150, 160
 170, 180, 190, 200, 210, 220, 230, 240, 250, 260, 270, 280, 290, 300, 310, 320
 330, 340, 350, 360, 370, 380, 390, 400, 401, 411, 421, 431, 441, 451, 461, 471
 481, 491, 501, 511, 521, 531, 541, 551, 561, 571, 581, 591, 601, 611, 621, 631
 641, 651, 661, 671, 681, 691, 701, 711, 721, 731, 741, 751, 761, 771, 781, 791
*Nset, nset=Set-25, instance=plate-1
   2,   3,   6,  16,  17,  18,  19,  20,  21,  22,  23,  24,  25,  26,  27,  28
  29,  30,  31,  32,  33,  34,  35,  36,  37,  38,  39,  40,  41,  42,  43,  44
  45,  46,  47,  48,  49,  50,  51,  52,  53,  54, 151, 152, 153, 154, 155, 156
 157, 158, 159, 160, 161, 162, 163, 164, 165, 166, 167, 168, 169, 170, 171, 172
 173, 174, 175, 176, 177, 178, 179, 180, 181, 182, 183, 184, 185, 186, 187, 188
 189,
*Elset, elset=Set-25, instance=plate-1
  10,  20,  30,  40,  50,  60,  70,  80,  90, 100, 110, 120, 130, 140, 150, 160
 170, 180, 190, 200, 210, 220, 230, 240, 250, 260, 270, 280, 290, 300, 310, 320
 330, 340, 350, 360, 370, 380, 390, 400, 401, 411, 421, 431, 441, 451, 461, 471
 481, 491, 501, 511, 521, 531, 541, 551, 561, 571, 581, 591, 601, 611, 621, 631
 641, 651, 661, 671, 681, 691, 701, 711, 721, 731, 741, 751, 761, 771, 781, 791
*Nset, nset=Set-26, instance=plate-1
   2,   3,   6,  16,  17,  18,  19,  20,  21,  22,  23,  24,  25,  26,  27,  28
  29,  30,  31,  32,  33,  34,  35,  36,  37,  38,  39,  40,  41,  42,  43,  44
  45,  46,  47,  48,  49,  50,  51,  52,  53,  54, 151, 152, 153, 154, 155, 156
 157, 158, 159, 160, 161, 162, 163, 164, 165, 166, 167, 168, 169, 170, 171, 172
 173, 174, 175, 176, 177, 178, 179, 180, 181, 182, 183, 184, 185, 186, 187, 188
 189,
*Elset, elset=Set-26, instance=plate-1
  10,  20,  30,  40,  50,  60,  70,  80,  90, 100, 110, 120, 130, 140, 150, 160
 170, 180, 190, 200, 210, 220, 230, 240, 250, 260, 270, 280, 290, 300, 310, 320
 330, 340, 350, 360, 370, 380, 390, 400, 401, 411, 421, 431, 441, 451, 461, 471
 481, 491, 501, 511, 521, 531, 541, 551, 561, 571, 581, 591, 601, 611, 621, 631
 641, 651, 661, 671, 681, 691, 701, 711, 721, 731, 741, 751, 761, 771, 781, 791
*Nset, nset=Set-27, instance=plate-1
   2,   3,   6,  16,  17,  18,  19,  20,  21,  22,  23,  24,  25,  26,  27,  28
  29,  30,  31,  32,  33,  34,  35,  36,  37,  38,  39,  40,  41,  42,  43,  44
  45,  46,  47,  48,  49,  50,  51,  52,  53,  54, 151, 152, 153, 154, 155, 156
 157, 158, 159, 160, 161, 162, 163, 164, 165, 166, 167, 168, 169, 170, 171, 172
 173, 174, 175, 176, 177, 178, 179, 180, 181, 182, 183, 184, 185, 186, 187, 188
 189,
*Elset, elset=Set-27, instance=plate-1
  10,  20,  30,  40,  50,  60,  70,  80,  90, 100, 110, 120, 130, 140, 150, 160
 170, 180, 190, 200, 210, 220, 230, 240, 250, 260, 270, 280, 290, 300, 310, 320
 330, 340, 350, 360, 370, 380, 390, 400, 401, 411, 421, 431, 441, 451, 461, 471
 481, 491, 501, 511, 521, 531, 541, 551, 561, 571, 581, 591, 601, 611, 621, 631
 641, 651, 661, 671, 681, 691, 701, 711, 721, 731, 741, 751, 761, 771, 781, 791
*Nset, nset=Set-28, instance=plate-1
   2,   3,   6,  16,  17,  18,  19,  20,  21,  22,  23,  24,  25,  26,  27,  28
  29,  30,  31,  32,  33,  34,  35,  36,  37,  38,  39,  40,  41,  42,  43,  44
  45,  46,  47,  48,  49,  50,  51,  52,  53,  54, 151, 152, 153, 154, 155, 156
 157, 158, 159, 160, 161, 162, 163, 164, 165, 166, 167, 168, 169, 170, 171, 172
 173, 174, 175, 176, 177, 178, 179, 180, 181, 182, 183, 184, 185, 186, 187, 188
 189,
*Elset, elset=Set-28, instance=plate-1
  10,  20,  30,  40,  50,  60,  70,  80,  90, 100, 110, 120, 130, 140, 150, 160
 170, 180, 190, 200, 210, 220, 230, 240, 250, 260, 270, 280, 290, 300, 310, 320
 330, 340, 350, 360, 370, 380, 390, 400, 401, 411, 421, 431, 441, 451, 461, 471
 481, 491, 501, 511, 521, 531, 541, 551, 561, 571, 581, 591, 601, 611, 621, 631
 641, 651, 661, 671, 681, 691, 701, 711, 721, 731, 741, 751, 761, 771, 781, 791
*Nset, nset=Set-29, instance=plate-1
   2,   3,   6,  16,  17,  18,  19,  20,  21,  22,  23,  24,  25,  26,  27,  28
  29,  30,  31,  32,  33,  34,  35,  36,  37,  38,  39,  40,  41,  42,  43,  44
  45,  46,  47,  48,  49,  50,  51,  52,  53,  54, 151, 152, 153, 154, 155, 156
 157, 158, 159, 160, 161, 162, 163, 164, 165, 166, 167, 168, 169, 170, 171, 172
 173, 174, 175, 176, 177, 178, 179, 180, 181, 182, 183, 184, 185, 186, 187, 188
 189,
*Elset, elset=Set-29, instance=plate-1
  10,  20,  30,  40,  50,  60,  70,  80,  90, 100, 110, 120, 130, 140, 150, 160
 170, 180, 190, 200, 210, 220, 230, 240, 250, 260, 270, 280, 290, 300, 310, 320
 330, 340, 350, 360, 370, 380, 390, 400, 401, 411, 421, 431, 441, 451, 461, 471
 481, 491, 501, 511, 521, 531, 541, 551, 561, 571, 581, 591, 601, 611, 621, 631
 641, 651, 661, 671, 681, 691, 701, 711, 721, 731, 741, 751, 761, 771, 781, 791
*Nset, nset=Set-30, instance=plate-1
   2,   3,   6,  16,  17,  18,  19,  20,  21,  22,  23,  24,  25,  26,  27,  28
  29,  30,  31,  32,  33,  34,  35,  36,  37,  38,  39,  40,  41,  42,  43,  44
  45,  46,  47,  48,  49,  50,  51,  52,  53,  54, 151, 152, 153, 154, 155, 156
 157, 158, 159, 160, 161, 162, 163, 164, 165, 166, 167, 168, 169, 170, 171, 172
 173, 174, 175, 176, 177, 178, 179, 180, 181, 182, 183, 184, 185, 186, 187, 188
 189,
*Elset, elset=Set-30, instance=plate-1
  10,  20,  30,  40,  50,  60,  70,  80,  90, 100, 110, 120, 130, 140, 150, 160
 170, 180, 190, 200, 210, 220, 230, 240, 250, 260, 270, 280, 290, 300, 310, 320
 330, 340, 350, 360, 370, 380, 390, 400, 401, 411, 421, 431, 441, 451, 461, 471
 481, 491, 501, 511, 521, 531, 541, 551, 561, 571, 581, 591, 601, 611, 621, 631
 641, 651, 661, 671, 681, 691, 701, 711, 721, 731, 741, 751, 761, 771, 781, 791
*Nset, nset=Set-31, instance=plate-1
   2,   3,   6,  16,  17,  18,  19,  20,  21,  22,  23,  24,  25,  26,  27,  28
  29,  30,  31,  32,  33,  34,  35,  36,  37,  38,  39,  40,  41,  42,  43,  44
  45,  46,  47,  48,  49,  50,  51,  52,  53,  54, 151, 152, 153, 154, 155, 156
 157, 158, 159, 160, 161, 162, 163, 164, 165, 166, 167, 168, 169, 170, 171, 172
 173, 174, 175, 176, 177, 178, 179, 180, 181, 182, 183, 184, 185, 186, 187, 188
 189,
*Elset, elset=Set-31, instance=plate-1
  10,  20,  30,  40,  50,  60,  70,  80,  90, 100, 110, 120, 130, 140, 150, 160
 170, 180, 190, 200, 210, 220, 230, 240, 250, 260, 270, 280, 290, 300, 310, 320
 330, 340, 350, 360, 370, 380, 390, 400, 401, 411, 421, 431, 441, 451, 461, 471
 481, 491, 501, 511, 521, 531, 541, 551, 561, 571, 581, 591, 601, 611, 621, 631
 641, 651, 661, 671, 681, 691, 701, 711, 721, 731, 741, 751, 761, 771, 781, 791
*Nset, nset=Set-32, instance=plate-1
   2,   3,   6,  16,  17,  18,  19,  20,  21,  22,  23,  24,  25,  26,  27,  28
  29,  30,  31,  32,  33,  34,  35,  36,  37,  38,  39,  40,  41,  42,  43,  44
  45,  46,  47,  48,  49,  50,  51,  52,  53,  54, 151, 152, 153, 154, 155, 156
 157, 158, 159, 160, 161, 162, 163, 164, 165, 166, 167, 168, 169, 170, 171, 172
 173, 174, 175, 176, 177, 178, 179, 180, 181, 182, 183, 184, 185, 186, 187, 188
 189,
*Elset, elset=Set-32, instance=plate-1
  10,  20,  30,  40,  50,  60,  70,  80,  90, 100, 110, 120, 130, 140, 150, 160
 170, 180, 190, 200, 210, 220, 230, 240, 250, 260, 270, 280, 290, 300, 310, 320
 330, 340, 350, 360, 370, 380, 390, 400, 401, 411, 421, 431, 441, 451, 461, 471
 481, 491, 501, 511, 521, 531, 541, 551, 561, 571, 581, 591, 601, 611, 621, 631
 641, 651, 661, 671, 681, 691, 701, 711, 721, 731, 741, 751, 761, 771, 781, 791
*Nset, nset=m_Set-8, instance=plate-1
 1,
*Nset, nset=m_Set-10
 2,
*Elset, elset=_m_Surf-1_S2, internal, instance=plate-1, generate
  10,  400,   10
*Elset, elset=_m_Surf-1_S4, internal, instance=plate-1, generate
 401,  791,   10
*Surface, type=ELEMENT, name=m_Surf-1
_m_Surf-1_S2, S2
_m_Surf-1_S4, S4
*Elset, elset=_m_Surf-4_S2, internal, instance=plate-1, generate
  10,  400,   10
*Elset, elset=_m_Surf-4_S4, internal, instance=plate-1, generate
 401,  791,   10
*Surface, type=ELEMENT, name=m_Surf-4
_m_Surf-4_S2, S2
_m_Surf-4_S4, S4
*Elset, elset=_m_Surf-10_S2, internal, instance=plate-1, generate
  10,  400,   10
*Elset, elset=_m_Surf-10_S4, internal, instance=plate-1, generate
 401,  791,   10
*Surface, type=ELEMENT, name=m_Surf-10
_m_Surf-10_S2, S2
_m_Surf-10_S4, S4
*Elset, elset=_m_Surf-12_S3, internal, instance=plate-1, generate
 391,  400,    1
*Surface, type=ELEMENT, name=m_Surf-12
_m_Surf-12_S3, S3
*Elset, elset=_s_Surf-3_S2, internal, instance=plate-1, generate
  10,  400,   10
*Elset, elset=_s_Surf-3_S4, internal, instance=plate-1, generate
 401,  791,   10
*Surface, type=ELEMENT, name=s_Surf-3
_s_Surf-3_S2, S2
_s_Surf-3_S4, S4
*Elset, elset=_s_Surf-4_S2, internal, instance=plate-1, generate
 410,  800,   10
*Elset, elset=_s_Surf-4_S4, internal, instance=plate-1, generate
   1,  391,   10
*Surface, type=ELEMENT, name=s_Surf-4
_s_Surf-4_S2, S2
_s_Surf-4_S4, S4
*Elset, elset=_s_Surf-8_S2, internal, instance=plate-1, generate
  10,  400,   10
*Elset, elset=_s_Surf-8_S4, internal, instance=plate-1, generate
 401,  791,   10
*Surface, type=ELEMENT, name=s_Surf-8
_s_Surf-8_S2, S2
_s_Surf-8_S4, S4
*Elset, elset=_s_Surf-10_S3, internal, instance=plate-1
 391, 392, 393, 394, 395, 396, 397, 398, 399, 400, 791, 792, 793, 794, 795, 796
 797, 798, 799, 800
*Surface, type=ELEMENT, name=s_Surf-10
_s_Surf-10_S3, S3
*Elset, elset=_s_Surf-12_S3, internal, instance=plate-1, generate
 791,  800,    1
*Surface, type=ELEMENT, name=s_Surf-12
_s_Surf-12_S3, S3
** Constraint: Top-Bottom
*Tie, name=Top-Bottom, adjust=yes
plate-1."top surrface", plate-1."bottom surface"
*Elset, elset="__general contact_gcs0_10_S1", internal, instance="layer 1/6-1"
   31,  246,  247,  248,  249,  255,  263,  271,  340,  591,  650,  678,  689,  716,  717,  731
  734,  873, 1197, 1336, 1491, 1501, 1508, 1509, 1532, 1546, 1555, 1558, 1564, 1781, 1785, 1790
 1791, 1792, 1794, 1802, 1830, 1832, 1835, 1860, 1873, 1883, 1896, 1899, 1908, 1913, 1932, 2215
 4288, 4308, 4319, 4320, 4331, 4332, 4347, 4348, 4471, 4473, 4510
*Elset, elset="__general contact_gcs0_10_S4", internal, instance="layer 1/6-1"
  250,  336,  583,  586,  604,  612,  614,  621,  656,  657,  671,  677,  684,  692,  695,  697
  707,  719,  722,  724,  733,  737,  927, 1183, 1254, 1315, 1363, 1370, 1372, 1385, 1476, 1477
 1485, 1493, 1495, 1500, 1511, 1516, 1523, 1524, 1533, 1536, 1538, 1539, 1542, 1545, 1547, 1551
 1552, 1560, 1562, 1563, 1777, 1778, 1780, 1783, 1786, 1797, 1798, 1803, 1805, 1809, 1827, 1828
 1833, 1834, 1837, 1840, 1857, 1859, 1863, 1870, 1874, 1876, 1879, 1888, 1905, 1906, 1910, 1927
 1929, 1940, 2020, 2027, 2088, 2091, 2132, 4300, 4427, 4438, 4445, 4450, 4472, 4474, 4487, 4489
*Elset, elset="__general contact_gcs0_10_S2", internal, instance="layer 1/6-1"
  254,  279,  335,  337,  584,  585,  598,  607,  626,  635,  646,  647,  649,  658,  670,  679
  682,  685,  691,  706,  736,  995, 1116, 1177, 1182, 1214, 1257, 1258, 1269, 1273, 1319, 1347
 1348, 1353, 1369, 1383, 1384, 1391, 1484, 1486, 1487, 1489, 1496, 1497, 1499, 1502, 1504, 1505
 1506, 1507, 1510, 1513, 1514, 1515, 1520, 1522, 1525, 1527, 1529, 1540, 1541, 1543, 1544, 1550
 1566, 1567, 1779, 1784, 1788, 1799, 1804, 1808, 1810, 1816, 1818, 1822, 1825, 1831, 1838, 1841
 1846, 1849, 1856, 1862, 1864, 1866, 1872, 1875, 1877, 1878, 1881, 1885, 1887, 1890, 1892, 1893
 1898, 1900, 1907, 1935, 1980, 2030, 2237, 2799, 3111, 4299, 4302, 4304, 4305, 4307, 4396, 4397
 4418, 4420, 4421, 4424, 4428, 4439, 4440, 4441, 4443, 4444, 4449, 4455, 4468, 4478, 4480, 4483
 4485, 4491, 4494, 4495, 4498, 4505, 4506
*Elset, elset="__general contact_gcs0_10_S3", internal, instance="layer 1/6-1"
  258,  278,  620,  699,  713,  718,  721,  739,  997,  998, 1256, 1490, 1519, 1528, 1531, 1534
 1535, 1548, 1553, 1593, 1594, 1793, 1796, 1806, 1807, 1820, 1823, 1824, 1868, 1871, 1889, 1901
 2031, 2154, 2652, 2665, 2909, 4306, 4322, 4324, 4328, 4426, 4456, 4479, 4493
*Surface, type=ELEMENT, name="_general contact_gcs0_10", internal
"__general contact_gcs0_10_S1", S1
"__general contact_gcs0_10_S4", S4
"__general contact_gcs0_10_S2", S2
"__general contact_gcs0_10_S3", S3
*Elset, elset="__general contact_gcs0_12_S2", internal, instance="layer 1/6-1"
  6342,  6346,  6727,  6786,  6789,  6813,  6939,  7488,  7713,  7846,  7856,  7868,  7886,  7909,  8182,  8183
  8214,  8218,  8233,  8262, 10705
*Elset, elset="__general contact_gcs0_12_S3", internal, instance="layer 1/6-1"
  6585,  6660,  6663,  6666,  6714,  6715,  6720,  6725,  6769,  6779,  6781,  6797,  6802,  6814,  6815,  6833
  6834,  6835,  6844,  6856,  6872,  6897,  6926,  6950,  7071,  7415,  7588,  7631,  7639,  7660,  7682,  7720
  7726,  7740,  7741,  7827,  7830,  7842,  7843,  7852,  7853,  7854,  7857,  7859,  7861,  7864,  7867,  7874
  7879,  7880,  7885,  7887,  7889,  7900,  7906,  7911,  7921,  8149,  8152,  8157,  8158,  8161,  8166,  8173
  8176,  8177,  8192,  8197,  8198,  8203,  8207,  8210,  8217,  8223,  8224,  8227,  8239,  8250,  8269,  8271
  8277,  8280,  8281,  8291,  8298,  8313,  8336,  8496,  8507,  8513,  8552,  8654,  8820,  8932,  9094, 10549
 10570, 10579, 10583, 10587, 10650, 10651, 10671, 10674, 10676, 10678, 10683, 10696, 10712, 10714, 10762, 10764
 10771, 10775, 10777, 10782, 10783, 10854, 10856, 10857, 10868
*Elset, elset="__general contact_gcs0_12_S1", internal, instance="layer 1/6-1"
  6662,  6664,  6667,  6711,  6712,  6719,  6721,  6728,  6767,  6773,  6783,  6784,  6788,  6808,  6848,  6857
  6869,  6871,  6905,  6956,  6981,  6982,  7321,  7452,  7487,  7493,  7499,  7540,  7548,  7620,  7681,  7709
  7719,  7729,  7733,  7734,  7735,  7826,  7832,  7840,  7844,  7848,  7851,  7862,  7863,  7865,  7866,  7872
  7876,  7877,  7881,  7882,  7892,  7893,  7894,  7895,  7896,  7898,  7899,  7901,  7903,  7904,  7905,  7907
  7925,  7926,  8148,  8150,  8160,  8162,  8163,  8165,  8172,  8179,  8180,  8181,  8184,  8186,  8189,  8193
  8194,  8201,  8204,  8206,  8208,  8211,  8215,  8216,  8221,  8225,  8228,  8229,  8230,  8231,  8234,  8238
  8240,  8241,  8242,  8243,  8245,  8248,  8249,  8253,  8254,  8255,  8258,  8259,  8264,  8267,  8273,  8275
  8278,  8279,  8282,  8284,  8290,  8318,  8335,  8337,  8516,  8585,  9020,  9739,  9740, 10586, 10648, 10649
 10665, 10673, 10681, 10684, 10689, 10691, 10699, 10703, 10704, 10706, 10709, 10726, 10729, 10765, 10770, 10780
 10785, 10786, 10787, 10842, 10843, 10845, 10848, 10849, 10852, 10862, 10864, 10866
*Elset, elset="__general contact_gcs0_12_S4", internal, instance="layer 1/6-1"
  6665,  6716,  6768,  6824,  7322,  7413,  7539,  7589,  7659,  7737,  7742,  7831,  7834,  7837,  7845,  7850
  7871,  7873,  7878,  7890,  7897,  7922,  8156,  8159,  8178,  8185,  8196,  8202,  8213,  8236,  8252,  8261
  8268,  8363,  8418,  8653, 10865
*Surface, type=ELEMENT, name="_general contact_gcs0_12", internal
"__general contact_gcs0_12_S2", S2
"__general contact_gcs0_12_S3", S3
"__general contact_gcs0_12_S4", S4
"__general contact_gcs0_12_S1", S1
*Elset, elset="__general contact_gcs0_14_S2", internal, instance="layer 1/6-1"
 12676, 12678, 12692, 12716, 12720, 12728, 12729, 12731, 12867, 12918, 12953, 12954, 17365, 17367
*Elset, elset="__general contact_gcs0_14_S4", internal, instance="layer 1/6-1"
 12696, 12697, 12717, 12726, 12730, 12842, 12866, 12874, 12951, 12952
*Elset, elset="__general contact_gcs0_14_S1", internal, instance="layer 1/6-1"
 12755, 12765, 12915, 12916, 12950
*Elset, elset="__general contact_gcs0_14_S3", internal, instance="layer 1/6-1"
 12764, 12766
*Surface, type=ELEMENT, name="_general contact_gcs0_14", internal
"__general contact_gcs0_14_S2", S2
"__general contact_gcs0_14_S4", S4
"__general contact_gcs0_14_S1", S1
"__general contact_gcs0_14_S3", S3
*Elset, elset="__general contact_gcs0_16_S2", internal, instance="layer 1/6-1"
 12738, 12740, 12741, 12781, 12957, 17362
*Elset, elset="__general contact_gcs0_16_S3", internal, instance="layer 1/6-1"
 12762, 12960, 17585
*Elset, elset="__general contact_gcs0_16_S1", internal, instance="layer 1/6-1"
 12780, 12791, 12805, 12917, 12955, 13186, 13558, 17584
*Elset, elset="__general contact_gcs0_16_S4", internal, instance="layer 1/6-1"
 12802, 12803, 12804, 12806, 12956, 12958
*Surface, type=ELEMENT, name="_general contact_gcs0_16", internal
"__general contact_gcs0_16_S2", S2
"__general contact_gcs0_16_S3", S3
"__general contact_gcs0_16_S4", S4
"__general contact_gcs0_16_S1", S1
*Elset, elset="__general contact_gcs0_17_S2", internal, instance="layer 1/6-1"
 18827, 19400
*Elset, elset="__general contact_gcs0_17_S1", internal, instance="layer 1/6-1"
 18921, 18934, 18964, 19039, 19105, 19192, 19193, 19204, 19397
*Elset, elset="__general contact_gcs0_17_S3", internal, instance="layer 1/6-1"
 18935, 18936, 18940, 18962, 18977, 23412, 23429
*Elset, elset="__general contact_gcs0_17_S4", internal, instance="layer 1/6-1"
 18953, 19107, 19108, 19191, 23612
*Surface, type=ELEMENT, name="_general contact_gcs0_17", internal
"__general contact_gcs0_17_S2", S2
"__general contact_gcs0_17_S1", S1
"__general contact_gcs0_17_S4", S4
"__general contact_gcs0_17_S3", S3
*Elset, elset="__general contact_gcs0_19_S2", internal, instance="layer 1/6-1"
 18928, 18978, 19131, 19148, 19151, 19198, 19199, 19200
*Elset, elset="__general contact_gcs0_19_S4", internal, instance="layer 1/6-1"
 18929, 18946, 18948, 18951, 18989, 19000, 19002, 19025, 19130, 19145, 19149, 19197
*Elset, elset="__general contact_gcs0_19_S3", internal, instance="layer 1/6-1"
 18947, 18990, 18991, 18992, 19013, 19028, 19120, 23432
*Elset, elset="__general contact_gcs0_19_S1", internal, instance="layer 1/6-1"
 19027, 19053, 19196
*Surface, type=ELEMENT, name="_general contact_gcs0_19", internal
"__general contact_gcs0_19_S2", S2
"__general contact_gcs0_19_S4", S4
"__general contact_gcs0_19_S3", S3
"__general contact_gcs0_19_S1", S1
*End Assembly
** 
** MATERIALS
** 
*Material, name=elastomer
*Density
1175.,
*Hyperelastic, mooney-rivlin
<C10>,<C1>,0
*Material, name=steel
*Density
7850.,
*Elastic
 2.1e+11, 0.3
** 
** INTERACTION PROPERTIES
** 
*Surface Interaction, name=frict
1.,
*Friction, slip tolerance=0.005
 0.3,
** 
** BOUNDARY CONDITIONS
** 
** Name: fix_all_nodes Type: Symmetry/Antisymmetry/Encastre
*Boundary
plate-1.all_nodes, XSYMM
** Name: fix_all_sides Type: Symmetry/Antisymmetry/Encastre
*Boundary
Set-2, XSYMM
** Name: fix_inner_layer Type: Symmetry/Antisymmetry/Encastre
*Boundary
Set-13, ENCASTRE
** 
** INTERACTIONS
** 
** Interaction: general contact
*Contact
*Contact Inclusions, ALL EXTERIOR
*Contact Property Assignment
 ,  , frict
*Surface Property Assignment, property=GEOMETRIC CORRECTION
"_general contact_gcs0_10", Circumferential, 0.04, 0.08625
"_general contact_gcs0_12", Circumferential, 0.04, 0.08625
"_general contact_gcs0_14", Circumferential, 0.04, 0.08625
"_general contact_gcs0_16", Circumferential, 0.04, 0.08625
"_general contact_gcs0_17", Circumferential, 0.04, 0.08625
"_general contact_gcs0_19", Circumferential, 0.04, 0.08625
** ----------------------------------------------------------------
** 
** STEP: press
** 
*Step, name=press, nlgeom=YES
*Static
0.01, 1., 1e-05, 0.01
** 
** BOUNDARY CONDITIONS
** 
** Name: press Type: Displacement/Rotation
*Boundary
Set-32, 1, 1
Set-32, 2, 2, 0.0015
Set-32, 6, 6
** 
** OUTPUT REQUESTS
** 
*Restart, write, frequency=0
** 
** FIELD OUTPUT: F-Output-1
** 
*Output, field, variable=PRESELECT
** 
** HISTORY OUTPUT: H-Output-3
** 
*Output, history
*Contact Output
CAREA, CFT2
** 
** HISTORY OUTPUT: H-Output-1
** 
*Node Output, nset=plate-1.one_node
U2, 
** 
** HISTORY OUTPUT: H-Output-2
** 
*Node Output, nset=plate-1.under_node
CF2, RF2, U2
*End Step
