*Heading
** Job name: 9804 Model name: Model-1
** Generated by: Abaqus/CAE 2022
*Preprint, echo=NO, model=NO, history=NO, contact=NO
**
*PARAMETER
C10=
C01=
** PARTS
**
*Part, name="layer 1/6"
*Node
      1, 0.0232901704, -0.0658039972
      2,           0., -0.0658039972
      3,           0., -0.0698039979
      4, -0.0232901704, -0.0658039972
      5,           0., -0.0599999987
      6, -0.0299999993, -0.0519615225
      7, -0.0349019989, -0.0604520366
      8, 0.0349019989, -0.0604520366
      9, 0.0299999993, -0.0519615225
     10,   0.02324019, -0.0658039972
     11, 0.0231902115, -0.0658039972
     12,  0.023140233, -0.0658039972
     13, 0.0230902545, -0.0658039972
     14, 0.0230402742, -0.0658039972
     15, 0.0229902957, -0.0658039972
     16, 0.0229403172, -0.0658039972
     17, 0.0228903387, -0.0658039972
     18, 0.0228403602, -0.0658039972
     19, 0.0227903798, -0.0658039972
     20, 0.0227404013, -0.0658039972
** ... 50913 like lines cut
*Element, type=CPS3
  1, 14749, 14544,  6263
  2, 13054,  5703,  5357
  3, 16278,  7951,  7883
  4, 17195, 16911,  8032
  5, 17609, 17774,  8195
  6, 13103,  4443,  4444
  7,  5553,  5499,  5897
  8, 15878,  7813, 16287
  9, 16036,  8107, 15865
 10,  8751,  8778,  8844
 11,  8456, 18039,  8232
 12, 12624, 12177,  4111
 13, 17436, 17282,  8307
 14, 17558,  7389, 17545
 15, 17237, 16815, 16989
 16,  7276,  7390, 16272
 17, 15483,  6488,  7029
 18, 13620,  4561, 13618
 19, 12156, 11609, 12000
 20, 15591,  7310,  6827
** ... 1732 like lines cut
*Element, type=CPS4R
  586,    10,    11,  1026,  1027
  587,  2532,  9068,  1018,  1019
  588,  9071,  1014,  1015,  2694
  589,  9602,  2631,  2828,  9745
  590,  9818,  9820, 10417,  2876
  591, 10150,  2519,  2817, 10293
  592, 10299,  4929,  9094,  2744
  593,  2083,  9899,  3053, 10713
  594,  9901,  2923, 10713,  3053
  595,  2766,  2520,  9645,  2904
  596,  3497,  2904,  9645,  2529
  597, 10086,  3017,  9117,  2887
  598,  9860, 10089, 10088,  3921
  599,  9129,  9868, 10843,  2647
  600,  9882,  5285,  9862,  3627
  601, 10215,  9704,  9773,  4863
  602,  3291,  2749,  2966,  9143
  603,  9802,  2640,  9821,  9822
  604, 10161,  2641,  9777,  3052
  605, 10115,  5369, 10946,  2970
** ... 49504 like lines cut
*Nset, nset=Set-1, generate
     1,  50933,      1
*Elset, elset=Set-1, generate
     1,  51276,      1
** Section: elastomer
*Solid Section, elset=Set-1, material=elastomer
,
*End Part
**  
*Part, name=plate
*Node
      1, 0.0399999991, 0.00625000009
      2, 0.0399999991, 0.0162499994
      3,           0., 0.0162499994
      4,           0., 0.00625000009
      5, 0.0799999982, 0.00625000009
      6, 0.0799999982, 0.0162499994
      7, 0.0399999991, 0.00724999979
      8, 0.0399999991, 0.00824999996
      9, 0.0399999991, 0.00925000012
     10, 0.0399999991, 0.0102500003
     11, 0.0399999991, 0.0112500004
     12, 0.0399999991, 0.0122499997
     13, 0.0399999991, 0.0132499998
     14, 0.0399999991,      0.01425
     15, 0.0399999991, 0.0152500002
     16, 0.0390000008, 0.0162499994
     17, 0.0379999988, 0.0162499994
     18, 0.0370000005, 0.0162499994
     19, 0.0359999985, 0.0162499994
     20, 0.0350000001, 0.0162499994
** ... 871 like lines cut
*Element, type=CPS4R
  1,   1,   7, 190, 102
  2,   7,   8, 191, 190
  3,   8,   9, 192, 191
  4,   9,  10, 193, 192
  5,  10,  11, 194, 193
  6,  11,  12, 195, 194
  7,  12,  13, 196, 195
  8,  13,  14, 197, 196
  9,  14,  15, 198, 197
 10,  15,   2,  16, 198
 11, 102, 190, 199, 101
 12, 190, 191, 200, 199
 13, 191, 192, 201, 200
 14, 192, 193, 202, 201
 15, 193, 194, 203, 202
 16, 194, 195, 204, 203
 17, 195, 196, 205, 204
 18, 196, 197, 206, 205
 19, 197, 198, 207, 206
 20, 198,  16,  17, 207
** ... 780 like lines cut
*Nset, nset=Set-1, generate
   1,  891,    1
*Elset, elset=Set-1, generate
   1,  800,    1
*Nset, nset=all_nodes, generate
   1,  891,    1
*Nset, nset=under_node
 1,
*Nset, nset=one_node
 2,
*Elset, elset="_top surrface_S2", internal, generate
  10,  400,   10
*Elset, elset="_top surrface_S4", internal, generate
 401,  791,   10
*Surface, type=ELEMENT, name="top surrface"
"_top surrface_S2", S2
"_top surrface_S4", S4
*Elset, elset="_bottom surface_S4", internal, generate
   1,  391,   10
*Elset, elset="_bottom surface_S2", internal, generate
 410,  800,   10
*Surface, type=ELEMENT, name="bottom surface"
"_bottom surface_S4", S4
"_bottom surface_S2", S2
** Section: steel
*Solid Section, elset=Set-1, material=steel
,
*End Part
**  
**
** ASSEMBLY
**
*Assembly, name=Assembly
**  
*Instance, name=plate-1, part=plate
*End Instance
**  
*Instance, name="layer 1/6-1", part="layer 1/6"
        0.04,     0.086054,           0.
*End Instance
**  
*Node
      1, 0.0399999991, 0.00625000009,           0.
*Node
      2,           0., 0.0162499994,           0.
*Nset, nset=Set-2, instance=plate-1
   1,   2,   3,   4,   5,   6,  16,  17,  18,  19,  20,  21,  22,  23,  24,  25
  26,  27,  28,  29,  30,  31,  32,  33,  34,  35,  36,  37,  38,  39,  40,  41
  42,  43,  44,  45,  46,  47,  48,  49,  50,  51,  52,  53,  54,  64,  65,  66
  67,  68,  69,  70,  71,  72,  73,  74,  75,  76,  77,  78,  79,  80,  81,  82
  83,  84,  85,  86,  87,  88,  89,  90,  91,  92,  93,  94,  95,  96,  97,  98
  99, 100, 101, 102, 103, 104, 105, 106, 107, 108, 109, 110, 111, 112, 113, 114
 115, 116, 117, 118, 119, 120, 121, 122, 123, 124, 125, 126, 127, 128, 129, 130
 131, 132, 133, 134, 135, 136, 137, 138, 139, 140, 141, 151, 152, 153, 154, 155
 156, 157, 158, 159, 160, 161, 162, 163, 164, 165, 166, 167, 168, 169, 170, 171
 172, 173, 174, 175, 176, 177, 178, 179, 180, 181, 182, 183, 184, 185, 186, 187
 188, 189
*Elset, elset=Set-2, instance=plate-1
   1,  10,  11,  20,  21,  30,  31,  40,  41,  50,  51,  60,  61,  70,  71,  80
  81,  90,  91, 100, 101, 110, 111, 120, 121, 130, 131, 140, 141, 150, 151, 160
 161, 170, 171, 180, 181, 190, 191, 200, 201, 210, 211, 220, 221, 230, 231, 240
 241, 250, 251, 260, 261, 270, 271, 280, 281, 290, 291, 300, 301, 310, 311, 320
 321, 330, 331, 340, 341, 350, 351, 360, 361, 370, 371, 380, 381, 390, 391, 400
 401, 410, 411, 420, 421, 430, 431, 440, 441, 450, 451, 460, 461, 470, 471, 480
 481, 490, 491, 500, 501, 510, 511, 520, 521, 530, 531, 540, 541, 550, 551, 560
 561, 570, 571, 580, 581, 590, 591, 600, 601, 610, 611, 620, 621, 630, 631, 640
 641, 650, 651, 660, 661, 670, 671, 680, 681, 690, 691, 700, 701, 710, 711, 720
 721, 730, 731, 740, 741, 750, 751, 760, 761, 770, 771, 780, 781, 790, 791, 800
*Nset, nset=Set-3, instance=plate-1
   2,   3,   6,  16,  17,  18,  19,  20,  21,  22,  23,  24,  25,  26,  27,  28
  29,  30,  31,  32,  33,  34,  35,  36,  37,  38,  39,  40,  41,  42,  43,  44
  45,  46,  47,  48,  49,  50,  51,  52,  53,  54, 151, 152, 153, 154, 155, 156
 157, 158, 159, 160, 161, 162, 163, 164, 165, 166, 167, 168, 169, 170, 171, 172
 173, 174, 175, 176, 177, 178, 179, 180, 181, 182, 183, 184, 185, 186, 187, 188
 189,
*Elset, elset=Set-3, instance=plate-1
  10,  20,  30,  40,  50,  60,  70,  80,  90, 100, 110, 120, 130, 140, 150, 160
 170, 180, 190, 200, 210, 220, 230, 240, 250, 260, 270, 280, 290, 300, 310, 320
 330, 340, 350, 360, 370, 380, 390, 400, 401, 411, 421, 431, 441, 451, 461, 471
 481, 491, 501, 511, 521, 531, 541, 551, 561, 571, 581, 591, 601, 611, 621, 631
 641, 651, 661, 671, 681, 691, 701, 711, 721, 731, 741, 751, 761, 771, 781, 791
*Nset, nset=Set-4, instance=plate-1
   2,   3,   6,  16,  17,  18,  19,  20,  21,  22,  23,  24,  25,  26,  27,  28
  29,  30,  31,  32,  33,  34,  35,  36,  37,  38,  39,  40,  41,  42,  43,  44
  45,  46,  47,  48,  49,  50,  51,  52,  53,  54, 151, 152, 153, 154, 155, 156
 157, 158, 159, 160, 161, 162, 163, 164, 165, 166, 167, 168, 169, 170, 171, 172
 173, 174, 175, 176, 177, 178, 179, 180, 181, 182, 183, 184, 185, 186, 187, 188
 189,
*Elset, elset=Set-4, instance=plate-1
  10,  20,  30,  40,  50,  60,  70,  80,  90, 100, 110, 120, 130, 140, 150, 160
 170, 180, 190, 200, 210, 220, 230, 240, 250, 260, 270, 280, 290, 300, 310, 320
 330, 340, 350, 360, 370, 380, 390, 400, 401, 411, 421, 431, 441, 451, 461, 471
 481, 491, 501, 511, 521, 531, 541, 551, 561, 571, 581, 591, 601, 611, 621, 631
 641, 651, 661, 671, 681, 691, 701, 711, 721, 731, 741, 751, 761, 771, 781, 791
*Nset, nset=Set-5, instance=plate-1
 1,
*Nset, nset=Set-6, instance=plate-1
 1,
*Nset, nset=Set-14, instance=plate-1
   2,   3,   6,  16,  17,  18,  19,  20,  21,  22,  23,  24,  25,  26,  27,  28
  29,  30,  31,  32,  33,  34,  35,  36,  37,  38,  39,  40,  41,  42,  43,  44
  45,  46,  47,  48,  49,  50,  51,  52,  53,  54, 151, 152, 153, 154, 155, 156
 157, 158, 159, 160, 161, 162, 163, 164, 165, 166, 167, 168, 169, 170, 171, 172
 173, 174, 175, 176, 177, 178, 179, 180, 181, 182, 183, 184, 185, 186, 187, 188
 189,
*Elset, elset=Set-14, instance=plate-1
  10,  20,  30,  40,  50,  60,  70,  80,  90, 100, 110, 120, 130, 140, 150, 160
 170, 180, 190, 200, 210, 220, 230, 240, 250, 260, 270, 280, 290, 300, 310, 320
 330, 340, 350, 360, 370, 380, 390, 400, 401, 411, 421, 431, 441, 451, 461, 471
 481, 491, 501, 511, 521, 531, 541, 551, 561, 571, 581, 591, 601, 611, 621, 631
 641, 651, 661, 671, 681, 691, 701, 711, 721, 731, 741, 751, 761, 771, 781, 791
*Nset, nset=Set-15, instance=plate-1
   2,   3,   6,  16,  17,  18,  19,  20,  21,  22,  23,  24,  25,  26,  27,  28
  29,  30,  31,  32,  33,  34,  35,  36,  37,  38,  39,  40,  41,  42,  43,  44
  45,  46,  47,  48,  49,  50,  51,  52,  53,  54, 151, 152, 153, 154, 155, 156
 157, 158, 159, 160, 161, 162, 163, 164, 165, 166, 167, 168, 169, 170, 171, 172
 173, 174, 175, 176, 177, 178, 179, 180, 181, 182, 183, 184, 185, 186, 187, 188
 189,
*Elset, elset=Set-15, instance=plate-1
  10,  20,  30,  40,  50,  60,  70,  80,  90, 100, 110, 120, 130, 140, 150, 160
 170, 180, 190, 200, 210, 220, 230, 240, 250, 260, 270, 280, 290, 300, 310, 320
 330, 340, 350, 360, 370, 380, 390, 400, 401, 411, 421, 431, 441, 451, 461, 471
 481, 491, 501, 511, 521, 531, 541, 551, 561, 571, 581, 591, 601, 611, 621, 631
 641, 651, 661, 671, 681, 691, 701, 711, 721, 731, 741, 751, 761, 771, 781, 791
*Nset, nset=Set-16, instance=plate-1
   2,   3,   6,  16,  17,  18,  19,  20,  21,  22,  23,  24,  25,  26,  27,  28
  29,  30,  31,  32,  33,  34,  35,  36,  37,  38,  39,  40,  41,  42,  43,  44
  45,  46,  47,  48,  49,  50,  51,  52,  53,  54, 151, 152, 153, 154, 155, 156
 157, 158, 159, 160, 161, 162, 163, 164, 165, 166, 167, 168, 169, 170, 171, 172
 173, 174, 175, 176, 177, 178, 179, 180, 181, 182, 183, 184, 185, 186, 187, 188
 189,
*Elset, elset=Set-16, instance=plate-1
  10,  20,  30,  40,  50,  60,  70,  80,  90, 100, 110, 120, 130, 140, 150, 160
 170, 180, 190, 200, 210, 220, 230, 240, 250, 260, 270, 280, 290, 300, 310, 320
 330, 340, 350, 360, 370, 380, 390, 400, 401, 411, 421, 431, 441, 451, 461, 471
 481, 491, 501, 511, 521, 531, 541, 551, 561, 571, 581, 591, 601, 611, 621, 631
 641, 651, 661, 671, 681, 691, 701, 711, 721, 731, 741, 751, 761, 771, 781, 791
*Nset, nset=Set-17, instance=plate-1
   2,   3,   6,  16,  17,  18,  19,  20,  21,  22,  23,  24,  25,  26,  27,  28
  29,  30,  31,  32,  33,  34,  35,  36,  37,  38,  39,  40,  41,  42,  43,  44
  45,  46,  47,  48,  49,  50,  51,  52,  53,  54, 151, 152, 153, 154, 155, 156
 157, 158, 159, 160, 161, 162, 163, 164, 165, 166, 167, 168, 169, 170, 171, 172
 173, 174, 175, 176, 177, 178, 179, 180, 181, 182, 183, 184, 185, 186, 187, 188
 189,
*Elset, elset=Set-17, instance=plate-1
  10,  20,  30,  40,  50,  60,  70,  80,  90, 100, 110, 120, 130, 140, 150, 160
 170, 180, 190, 200, 210, 220, 230, 240, 250, 260, 270, 280, 290, 300, 310, 320
 330, 340, 350, 360, 370, 380, 390, 400, 401, 411, 421, 431, 441, 451, 461, 471
 481, 491, 501, 511, 521, 531, 541, 551, 561, 571, 581, 591, 601, 611, 621, 631
 641, 651, 661, 671, 681, 691, 701, 711, 721, 731, 741, 751, 761, 771, 781, 791
*Nset, nset=Set-18, instance=plate-1
   2,   3,   6,  16,  17,  18,  19,  20,  21,  22,  23,  24,  25,  26,  27,  28
  29,  30,  31,  32,  33,  34,  35,  36,  37,  38,  39,  40,  41,  42,  43,  44
  45,  46,  47,  48,  49,  50,  51,  52,  53,  54, 151, 152, 153, 154, 155, 156
 157, 158, 159, 160, 161, 162, 163, 164, 165, 166, 167, 168, 169, 170, 171, 172
 173, 174, 175, 176, 177, 178, 179, 180, 181, 182, 183, 184, 185, 186, 187, 188
 189,
*Elset, elset=Set-18, instance=plate-1
  10,  20,  30,  40,  50,  60,  70,  80,  90, 100, 110, 120, 130, 140, 150, 160
 170, 180, 190, 200, 210, 220, 230, 240, 250, 260, 270, 280, 290, 300, 310, 320
 330, 340, 350, 360, 370, 380, 390, 400, 401, 411, 421, 431, 441, 451, 461, 471
 481, 491, 501, 511, 521, 531, 541, 551, 561, 571, 581, 591, 601, 611, 621, 631
 641, 651, 661, 671, 681, 691, 701, 711, 721, 731, 741, 751, 761, 771, 781, 791
*Nset, nset=Set-19, instance=plate-1
   2,   3,   6,  16,  17,  18,  19,  20,  21,  22,  23,  24,  25,  26,  27,  28
  29,  30,  31,  32,  33,  34,  35,  36,  37,  38,  39,  40,  41,  42,  43,  44
  45,  46,  47,  48,  49,  50,  51,  52,  53,  54, 151, 152, 153, 154, 155, 156
 157, 158, 159, 160, 161, 162, 163, 164, 165, 166, 167, 168, 169, 170, 171, 172
 173, 174, 175, 176, 177, 178, 179, 180, 181, 182, 183, 184, 185, 186, 187, 188
 189,
*Elset, elset=Set-19, instance=plate-1
  10,  20,  30,  40,  50,  60,  70,  80,  90, 100, 110, 120, 130, 140, 150, 160
 170, 180, 190, 200, 210, 220, 230, 240, 250, 260, 270, 280, 290, 300, 310, 320
 330, 340, 350, 360, 370, 380, 390, 400, 401, 411, 421, 431, 441, 451, 461, 471
 481, 491, 501, 511, 521, 531, 541, 551, 561, 571, 581, 591, 601, 611, 621, 631
 641, 651, 661, 671, 681, 691, 701, 711, 721, 731, 741, 751, 761, 771, 781, 791
*Nset, nset=Set-20, instance=plate-1
   2,   3,   6,  16,  17,  18,  19,  20,  21,  22,  23,  24,  25,  26,  27,  28
  29,  30,  31,  32,  33,  34,  35,  36,  37,  38,  39,  40,  41,  42,  43,  44
  45,  46,  47,  48,  49,  50,  51,  52,  53,  54, 151, 152, 153, 154, 155, 156
 157, 158, 159, 160, 161, 162, 163, 164, 165, 166, 167, 168, 169, 170, 171, 172
 173, 174, 175, 176, 177, 178, 179, 180, 181, 182, 183, 184, 185, 186, 187, 188
 189,
*Elset, elset=Set-20, instance=plate-1
  10,  20,  30,  40,  50,  60,  70,  80,  90, 100, 110, 120, 130, 140, 150, 160
 170, 180, 190, 200, 210, 220, 230, 240, 250, 260, 270, 280, 290, 300, 310, 320
 330, 340, 350, 360, 370, 380, 390, 400, 401, 411, 421, 431, 441, 451, 461, 471
 481, 491, 501, 511, 521, 531, 541, 551, 561, 571, 581, 591, 601, 611, 621, 631
 641, 651, 661, 671, 681, 691, 701, 711, 721, 731, 741, 751, 761, 771, 781, 791
*Nset, nset=Set-21, instance=plate-1
   2,   3,   6,  16,  17,  18,  19,  20,  21,  22,  23,  24,  25,  26,  27,  28
  29,  30,  31,  32,  33,  34,  35,  36,  37,  38,  39,  40,  41,  42,  43,  44
  45,  46,  47,  48,  49,  50,  51,  52,  53,  54, 151, 152, 153, 154, 155, 156
 157, 158, 159, 160, 161, 162, 163, 164, 165, 166, 167, 168, 169, 170, 171, 172
 173, 174, 175, 176, 177, 178, 179, 180, 181, 182, 183, 184, 185, 186, 187, 188
 189,
*Elset, elset=Set-21, instance=plate-1
  10,  20,  30,  40,  50,  60,  70,  80,  90, 100, 110, 120, 130, 140, 150, 160
 170, 180, 190, 200, 210, 220, 230, 240, 250, 260, 270, 280, 290, 300, 310, 320
 330, 340, 350, 360, 370, 380, 390, 400, 401, 411, 421, 431, 441, 451, 461, 471
 481, 491, 501, 511, 521, 531, 541, 551, 561, 571, 581, 591, 601, 611, 621, 631
 641, 651, 661, 671, 681, 691, 701, 711, 721, 731, 741, 751, 761, 771, 781, 791
*Nset, nset=Set-22, instance=plate-1
   2,   3,   6,  16,  17,  18,  19,  20,  21,  22,  23,  24,  25,  26,  27,  28
  29,  30,  31,  32,  33,  34,  35,  36,  37,  38,  39,  40,  41,  42,  43,  44
  45,  46,  47,  48,  49,  50,  51,  52,  53,  54, 151, 152, 153, 154, 155, 156
 157, 158, 159, 160, 161, 162, 163, 164, 165, 166, 167, 168, 169, 170, 171, 172
 173, 174, 175, 176, 177, 178, 179, 180, 181, 182, 183, 184, 185, 186, 187, 188
 189,
*Elset, elset=Set-22, instance=plate-1
  10,  20,  30,  40,  50,  60,  70,  80,  90, 100, 110, 120, 130, 140, 150, 160
 170, 180, 190, 200, 210, 220, 230, 240, 250, 260, 270, 280, 290, 300, 310, 320
 330, 340, 350, 360, 370, 380, 390, 400, 401, 411, 421, 431, 441, 451, 461, 471
 481, 491, 501, 511, 521, 531, 541, 551, 561, 571, 581, 591, 601, 611, 621, 631
 641, 651, 661, 671, 681, 691, 701, 711, 721, 731, 741, 751, 761, 771, 781, 791
*Nset, nset=Set-23, instance=plate-1
   2,   3,   6,  16,  17,  18,  19,  20,  21,  22,  23,  24,  25,  26,  27,  28
  29,  30,  31,  32,  33,  34,  35,  36,  37,  38,  39,  40,  41,  42,  43,  44
  45,  46,  47,  48,  49,  50,  51,  52,  53,  54, 151, 152, 153, 154, 155, 156
 157, 158, 159, 160, 161, 162, 163, 164, 165, 166, 167, 168, 169, 170, 171, 172
 173, 174, 175, 176, 177, 178, 179, 180, 181, 182, 183, 184, 185, 186, 187, 188
 189,
*Elset, elset=Set-23, instance=plate-1
  10,  20,  30,  40,  50,  60,  70,  80,  90, 100, 110, 120, 130, 140, 150, 160
 170, 180, 190, 200, 210, 220, 230, 240, 250, 260, 270, 280, 290, 300, 310, 320
 330, 340, 350, 360, 370, 380, 390, 400, 401, 411, 421, 431, 441, 451, 461, 471
 481, 491, 501, 511, 521, 531, 541, 551, 561, 571, 581, 591, 601, 611, 621, 631
 641, 651, 661, 671, 681, 691, 701, 711, 721, 731, 741, 751, 761, 771, 781, 791
*Nset, nset=Set-24, instance=plate-1
   2,   3,   6,  16,  17,  18,  19,  20,  21,  22,  23,  24,  25,  26,  27,  28
  29,  30,  31,  32,  33,  34,  35,  36,  37,  38,  39,  40,  41,  42,  43,  44
  45,  46,  47,  48,  49,  50,  51,  52,  53,  54, 151, 152, 153, 154, 155, 156
 157, 158, 159, 160, 161, 162, 163, 164, 165, 166, 167, 168, 169, 170, 171, 172
 173, 174, 175, 176, 177, 178, 179, 180, 181, 182, 183, 184, 185, 186, 187, 188
 189,
*Elset, elset=Set-24, instance=plate-1
  10,  20,  30,  40,  50,  60,  70,  80,  90, 100, 110, 120, 130, 140, 150, 160
 170, 180, 190, 200, 210, 220, 230, 240, 250, 260, 270, 280, 290, 300, 310, 320
 330, 340, 350, 360, 370, 380, 390, 400, 401, 411, 421, 431, 441, 451, 461, 471
 481, 491, 501, 511, 521, 531, 541, 551, 561, 571, 581, 591, 601, 611, 621, 631
 641, 651, 661, 671, 681, 691, 701, 711, 721, 731, 741, 751, 761, 771, 781, 791
*Nset, nset=Set-25, instance=plate-1
   2,   3,   6,  16,  17,  18,  19,  20,  21,  22,  23,  24,  25,  26,  27,  28
  29,  30,  31,  32,  33,  34,  35,  36,  37,  38,  39,  40,  41,  42,  43,  44
  45,  46,  47,  48,  49,  50,  51,  52,  53,  54, 151, 152, 153, 154, 155, 156
 157, 158, 159, 160, 161, 162, 163, 164, 165, 166, 167, 168, 169, 170, 171, 172
 173, 174, 175, 176, 177, 178, 179, 180, 181, 182, 183, 184, 185, 186, 187, 188
 189,
*Elset, elset=Set-25, instance=plate-1
  10,  20,  30,  40,  50,  60,  70,  80,  90, 100, 110, 120, 130, 140, 150, 160
 170, 180, 190, 200, 210, 220, 230, 240, 250, 260, 270, 280, 290, 300, 310, 320
 330, 340, 350, 360, 370, 380, 390, 400, 401, 411, 421, 431, 441, 451, 461, 471
 481, 491, 501, 511, 521, 531, 541, 551, 561, 571, 581, 591, 601, 611, 621, 631
 641, 651, 661, 671, 681, 691, 701, 711, 721, 731, 741, 751, 761, 771, 781, 791
*Nset, nset=Set-26, instance=plate-1
   2,   3,   6,  16,  17,  18,  19,  20,  21,  22,  23,  24,  25,  26,  27,  28
  29,  30,  31,  32,  33,  34,  35,  36,  37,  38,  39,  40,  41,  42,  43,  44
  45,  46,  47,  48,  49,  50,  51,  52,  53,  54, 151, 152, 153, 154, 155, 156
 157, 158, 159, 160, 161, 162, 163, 164, 165, 166, 167, 168, 169, 170, 171, 172
 173, 174, 175, 176, 177, 178, 179, 180, 181, 182, 183, 184, 185, 186, 187, 188
 189,
*Elset, elset=Set-26, instance=plate-1
  10,  20,  30,  40,  50,  60,  70,  80,  90, 100, 110, 120, 130, 140, 150, 160
 170, 180, 190, 200, 210, 220, 230, 240, 250, 260, 270, 280, 290, 300, 310, 320
 330, 340, 350, 360, 370, 380, 390, 400, 401, 411, 421, 431, 441, 451, 461, 471
 481, 491, 501, 511, 521, 531, 541, 551, 561, 571, 581, 591, 601, 611, 621, 631
 641, 651, 661, 671, 681, 691, 701, 711, 721, 731, 741, 751, 761, 771, 781, 791
*Nset, nset=Set-27, instance=plate-1
   2,   3,   6,  16,  17,  18,  19,  20,  21,  22,  23,  24,  25,  26,  27,  28
  29,  30,  31,  32,  33,  34,  35,  36,  37,  38,  39,  40,  41,  42,  43,  44
  45,  46,  47,  48,  49,  50,  51,  52,  53,  54, 151, 152, 153, 154, 155, 156
 157, 158, 159, 160, 161, 162, 163, 164, 165, 166, 167, 168, 169, 170, 171, 172
 173, 174, 175, 176, 177, 178, 179, 180, 181, 182, 183, 184, 185, 186, 187, 188
 189,
*Elset, elset=Set-27, instance=plate-1
  10,  20,  30,  40,  50,  60,  70,  80,  90, 100, 110, 120, 130, 140, 150, 160
 170, 180, 190, 200, 210, 220, 230, 240, 250, 260, 270, 280, 290, 300, 310, 320
 330, 340, 350, 360, 370, 380, 390, 400, 401, 411, 421, 431, 441, 451, 461, 471
 481, 491, 501, 511, 521, 531, 541, 551, 561, 571, 581, 591, 601, 611, 621, 631
 641, 651, 661, 671, 681, 691, 701, 711, 721, 731, 741, 751, 761, 771, 781, 791
*Nset, nset=Set-28, instance=plate-1
   2,   3,   6,  16,  17,  18,  19,  20,  21,  22,  23,  24,  25,  26,  27,  28
  29,  30,  31,  32,  33,  34,  35,  36,  37,  38,  39,  40,  41,  42,  43,  44
  45,  46,  47,  48,  49,  50,  51,  52,  53,  54, 151, 152, 153, 154, 155, 156
 157, 158, 159, 160, 161, 162, 163, 164, 165, 166, 167, 168, 169, 170, 171, 172
 173, 174, 175, 176, 177, 178, 179, 180, 181, 182, 183, 184, 185, 186, 187, 188
 189,
*Elset, elset=Set-28, instance=plate-1
  10,  20,  30,  40,  50,  60,  70,  80,  90, 100, 110, 120, 130, 140, 150, 160
 170, 180, 190, 200, 210, 220, 230, 240, 250, 260, 270, 280, 290, 300, 310, 320
 330, 340, 350, 360, 370, 380, 390, 400, 401, 411, 421, 431, 441, 451, 461, 471
 481, 491, 501, 511, 521, 531, 541, 551, 561, 571, 581, 591, 601, 611, 621, 631
 641, 651, 661, 671, 681, 691, 701, 711, 721, 731, 741, 751, 761, 771, 781, 791
*Nset, nset=Set-29, instance=plate-1
   2,   3,   6,  16,  17,  18,  19,  20,  21,  22,  23,  24,  25,  26,  27,  28
  29,  30,  31,  32,  33,  34,  35,  36,  37,  38,  39,  40,  41,  42,  43,  44
  45,  46,  47,  48,  49,  50,  51,  52,  53,  54, 151, 152, 153, 154, 155, 156
 157, 158, 159, 160, 161, 162, 163, 164, 165, 166, 167, 168, 169, 170, 171, 172
 173, 174, 175, 176, 177, 178, 179, 180, 181, 182, 183, 184, 185, 186, 187, 188
 189,
*Elset, elset=Set-29, instance=plate-1
  10,  20,  30,  40,  50,  60,  70,  80,  90, 100, 110, 120, 130, 140, 150, 160
 170, 180, 190, 200, 210, 220, 230, 240, 250, 260, 270, 280, 290, 300, 310, 320
 330, 340, 350, 360, 370, 380, 390, 400, 401, 411, 421, 431, 441, 451, 461, 471
 481, 491, 501, 511, 521, 531, 541, 551, 561, 571, 581, 591, 601, 611, 621, 631
 641, 651, 661, 671, 681, 691, 701, 711, 721, 731, 741, 751, 761, 771, 781, 791
*Nset, nset=Set-30, instance=plate-1
   2,   3,   6,  16,  17,  18,  19,  20,  21,  22,  23,  24,  25,  26,  27,  28
  29,  30,  31,  32,  33,  34,  35,  36,  37,  38,  39,  40,  41,  42,  43,  44
  45,  46,  47,  48,  49,  50,  51,  52,  53,  54, 151, 152, 153, 154, 155, 156
 157, 158, 159, 160, 161, 162, 163, 164, 165, 166, 167, 168, 169, 170, 171, 172
 173, 174, 175, 176, 177, 178, 179, 180, 181, 182, 183, 184, 185, 186, 187, 188
 189,
*Elset, elset=Set-30, instance=plate-1
  10,  20,  30,  40,  50,  60,  70,  80,  90, 100, 110, 120, 130, 140, 150, 160
 170, 180, 190, 200, 210, 220, 230, 240, 250, 260, 270, 280, 290, 300, 310, 320
 330, 340, 350, 360, 370, 380, 390, 400, 401, 411, 421, 431, 441, 451, 461, 471
 481, 491, 501, 511, 521, 531, 541, 551, 561, 571, 581, 591, 601, 611, 621, 631
 641, 651, 661, 671, 681, 691, 701, 711, 721, 731, 741, 751, 761, 771, 781, 791
*Nset, nset=Set-31, instance=plate-1
   2,   3,   6,  16,  17,  18,  19,  20,  21,  22,  23,  24,  25,  26,  27,  28
  29,  30,  31,  32,  33,  34,  35,  36,  37,  38,  39,  40,  41,  42,  43,  44
  45,  46,  47,  48,  49,  50,  51,  52,  53,  54, 151, 152, 153, 154, 155, 156
 157, 158, 159, 160, 161, 162, 163, 164, 165, 166, 167, 168, 169, 170, 171, 172
 173, 174, 175, 176, 177, 178, 179, 180, 181, 182, 183, 184, 185, 186, 187, 188
 189,
*Elset, elset=Set-31, instance=plate-1
  10,  20,  30,  40,  50,  60,  70,  80,  90, 100, 110, 120, 130, 140, 150, 160
 170, 180, 190, 200, 210, 220, 230, 240, 250, 260, 270, 280, 290, 300, 310, 320
 330, 340, 350, 360, 370, 380, 390, 400, 401, 411, 421, 431, 441, 451, 461, 471
 481, 491, 501, 511, 521, 531, 541, 551, 561, 571, 581, 591, 601, 611, 621, 631
 641, 651, 661, 671, 681, 691, 701, 711, 721, 731, 741, 751, 761, 771, 781, 791
*Nset, nset=Set-32, instance=plate-1
   2,   3,   6,  16,  17,  18,  19,  20,  21,  22,  23,  24,  25,  26,  27,  28
  29,  30,  31,  32,  33,  34,  35,  36,  37,  38,  39,  40,  41,  42,  43,  44
  45,  46,  47,  48,  49,  50,  51,  52,  53,  54, 151, 152, 153, 154, 155, 156
 157, 158, 159, 160, 161, 162, 163, 164, 165, 166, 167, 168, 169, 170, 171, 172
 173, 174, 175, 176, 177, 178, 179, 180, 181, 182, 183, 184, 185, 186, 187, 188
 189,
*Elset, elset=Set-32, instance=plate-1
  10,  20,  30,  40,  50,  60,  70,  80,  90, 100, 110, 120, 130, 140, 150, 160
 170, 180, 190, 200, 210, 220, 230, 240, 250, 260, 270, 280, 290, 300, 310, 320
 330, 340, 350, 360, 370, 380, 390, 400, 401, 411, 421, 431, 441, 451, 461, 471
 481, 491, 501, 511, 521, 531, 541, 551, 561, 571, 581, 591, 601, 611, 621, 631
 641, 651, 661, 671, 681, 691, 701, 711, 721, 731, 741, 751, 761, 771, 781, 791
*Nset, nset=Set-34, instance="layer 1/6-1"
    5,    6,    9, 1974, 1975, 1976, 1977, 1978, 1979, 1980, 1981, 1982, 1983, 1984, 1985, 1986
 1987, 1988, 1989, 1990, 1991, 1992, 1993, 1994, 1995, 1996, 1997, 1998, 1999, 2000, 2001, 2002
 2003, 2052, 2053, 2054, 2055, 2056, 2057, 2058, 2059, 2060, 2061, 2062, 2063, 2064, 2065, 2066
 2067, 2068, 2069, 2070, 2071, 2072, 2073, 2074, 2075, 2076, 2077, 2078, 2079, 2080, 2081
*Elset, elset=Set-34, instance="layer 1/6-1"
 34519, 34520, 34521, 34527, 34532, 34533, 34557, 34575, 34581, 34582, 34583, 34584, 34585, 34594, 34595, 34640
 34641, 34642, 34709, 34715, 34716, 34761, 34762, 34763, 34764, 34765, 41295, 41300, 41312, 41314, 41315, 43235
 43236, 43262, 43269, 43279, 43280, 43288, 43295, 43296, 43297, 43300, 43301, 43307, 43309, 43318, 43319, 43320
 43321, 43328, 43329, 43359, 43360, 43395, 43405, 43406, 43459, 43461, 43462, 43463, 48617, 49637
*Nset, nset=m_Set-8, instance=plate-1
 1,
*Nset, nset=m_Set-10
 2,
*Elset, elset=_m_Surf-1_S2, internal, instance=plate-1, generate
  10,  400,   10
*Elset, elset=_m_Surf-1_S4, internal, instance=plate-1, generate
 401,  791,   10
*Surface, type=ELEMENT, name=m_Surf-1
_m_Surf-1_S2, S2
_m_Surf-1_S4, S4
*Elset, elset=_m_Surf-4_S2, internal, instance=plate-1, generate
  10,  400,   10
*Elset, elset=_m_Surf-4_S4, internal, instance=plate-1, generate
 401,  791,   10
*Surface, type=ELEMENT, name=m_Surf-4
_m_Surf-4_S2, S2
_m_Surf-4_S4, S4
*Elset, elset=_m_Surf-10_S2, internal, instance=plate-1, generate
  10,  400,   10
*Elset, elset=_m_Surf-10_S4, internal, instance=plate-1, generate
 401,  791,   10
*Surface, type=ELEMENT, name=m_Surf-10
_m_Surf-10_S2, S2
_m_Surf-10_S4, S4
*Elset, elset=_m_Surf-12_S3, internal, instance=plate-1, generate
 391,  400,    1
*Surface, type=ELEMENT, name=m_Surf-12
_m_Surf-12_S3, S3
*Elset, elset=_s_Surf-3_S2, internal, instance=plate-1, generate
  10,  400,   10
*Elset, elset=_s_Surf-3_S4, internal, instance=plate-1, generate
 401,  791,   10
*Surface, type=ELEMENT, name=s_Surf-3
_s_Surf-3_S2, S2
_s_Surf-3_S4, S4
*Elset, elset=_s_Surf-4_S2, internal, instance=plate-1, generate
 410,  800,   10
*Elset, elset=_s_Surf-4_S4, internal, instance=plate-1, generate
   1,  391,   10
*Surface, type=ELEMENT, name=s_Surf-4
_s_Surf-4_S2, S2
_s_Surf-4_S4, S4
*Elset, elset=_s_Surf-8_S2, internal, instance=plate-1, generate
  10,  400,   10
*Elset, elset=_s_Surf-8_S4, internal, instance=plate-1, generate
 401,  791,   10
*Surface, type=ELEMENT, name=s_Surf-8
_s_Surf-8_S2, S2
_s_Surf-8_S4, S4
*Elset, elset=_s_Surf-10_S3, internal, instance=plate-1
 391, 392, 393, 394, 395, 396, 397, 398, 399, 400, 791, 792, 793, 794, 795, 796
 797, 798, 799, 800
*Surface, type=ELEMENT, name=s_Surf-10
_s_Surf-10_S3, S3
*Elset, elset=_s_Surf-12_S3, internal, instance=plate-1, generate
 791,  800,    1
*Surface, type=ELEMENT, name=s_Surf-12
_s_Surf-12_S3, S3
*Elset, elset=_s_Surf-14_S2, internal, instance=plate-1, generate
  10,  400,   10
*Elset, elset=_s_Surf-14_S4, internal, instance=plate-1, generate
 401,  791,   10
*Surface, type=ELEMENT, name=s_Surf-14
_s_Surf-14_S2, S2
_s_Surf-14_S4, S4
** Constraint: Top-Bottom
*Tie, name=Top-Bottom, adjust=yes
plate-1."top surrface", plate-1."bottom surface"
*Elset, elset="__general contact_gcs0_10_S2", internal, instance="layer 1/6-1"
    52,   588,   845,   881,   883,   933,   950,   955,  1001,  1002,  1049,  1050,  1056,  1084,  1134,  1186
  1187,  1202,  1203,  1225,  1240,  1244,  1245,  1264,  1267,  1274,  2074,  2434,  2494,  2499,  2504,  2911
  3163,  3191,  3247,  3302,  3311,  3328,  3548,  3591,  3609,  3624,  3757,  3784,  3794,  3850,  3994,  3996
  3997,  3998,  4000,  4008,  4012,  4019,  4030,  4031,  4035,  4036,  4040,  4041,  4043,  4045,  4049,  4053
  4057,  4058,  4060,  4061,  4067,  4074,  4076,  4077,  4098,  4099,  4101,  4104,  4346,  4348,  4351,  4362
  4365,  4369,  4375,  4376,  4378,  4380,  4382,  4387,  4388,  4390,  4392,  4394,  4400,  4402,  4404,  4405
  4407,  4410,  4412,  4414,  4416,  4417,  4421,  4423,  4427,  4429,  4432,  4433,  4435,  4436,  4437,  4440
  4442,  4446,  4447,  4459,  4464,  4472,  4476,  4480,  4483,  4484,  4487,  4488,  4491,  4494,  4496,  4500
  4503,  4505,  4517,  4518,  4519,  4562,  4564,  4566,  4567,  4609,  4615,  4670,  4690,  4750,  4900,  5030
  5280,  5584,  5805,  5854,  5876,  6354, 11810, 11813, 11820, 11821, 11822, 11825, 11832, 11833, 11836, 11838
 11843, 11846, 11847, 11851, 11854, 11857, 11859, 11860, 11861, 11866, 11873, 11880, 11881, 11883, 11885, 11891
 11893, 11897, 11898, 11899, 11901, 11905, 11906, 11907, 11964, 11968, 11969, 11975, 11977, 11981, 11984, 11987
 11990, 11991, 12001, 12008, 12011, 12015, 12017
*Elset, elset="__general contact_gcs0_10_S1", internal, instance="layer 1/6-1"
    54,  1154,  1190,  1210,  1237,  1246,  1284,  2288,  2383,  2443,  2593,  3278,  3322,  3453,  3701,  3825
  4010,  4016,  4033,  4038,  4089,  4091,  4093,  4096,  4102,  4124,  4345,  4356,  4359,  4366,  4384,  4385
  4389,  4393,  4411,  4428,  4453,  4467,  4471,  4499,  4508,  4514,  4563,  4571,  4671,  4761,  4833,  4840
  5114,  5290,  5353, 11811, 11874, 11918, 11923, 11929, 11932, 11934
*Elset, elset="__general contact_gcs0_10_S3", internal, instance="layer 1/6-1"
   586,   587,   848,  1046,  1152,  1165,  1182,  1191,  1242,  1243,  1283,  1289,  1292,  1587,  1855,  2444
  3044,  3046,  3182,  3310,  3327,  3623,  3746,  3965,  3966,  3988,  3990,  4003,  4017,  4028,  4029,  4039
  4046,  4048,  4050,  4064,  4073,  4075,  4085,  4092,  4353,  4361,  4373,  4391,  4399,  4406,  4425,  4426
  4443,  4451,  4454,  4462,  4481,  4498,  4506,  4513,  4516,  4520,  4580,  4586,  4593,  4682,  4771,  4779
  5390,  5426,  5583,  5833,  7496,  7548, 11707, 11858, 11870, 11917, 11925, 11926, 11930
*Elset, elset="__general contact_gcs0_10_S4", internal, instance="layer 1/6-1"
   847,   878,   879,   882,   906,   944,   947,  1025,  1030,  1044,  1104,  1109,  1115,  1228,  1254,  1256
  1257,  1265,  1273,  1280,  1295,  1320,  1605,  2435,  2573,  2579,  2580,  2592,  2862,  2876,  2915,  3045
  3234,  3277,  3326,  3425,  3447,  3454,  3796,  3852,  3853,  3985,  3986,  3987,  3991,  3992,  3993,  3995
  3999,  4004,  4006,  4007,  4009,  4011,  4013,  4014,  4015,  4020,  4023,  4024,  4027,  4051,  4052,  4054
  4056,  4063,  4068,  4071,  4072,  4079,  4080,  4081,  4083,  4086,  4088,  4097,  4100,  4103,  4347,  4349
  4358,  4360,  4363,  4364,  4367,  4371,  4372,  4374,  4395,  4396,  4397,  4401,  4408,  4409,  4415,  4418
  4419,  4431,  4438,  4439,  4452,  4456,  4457,  4458,  4466,  4469,  4473,  4474,  4477,  4486,  4492,  4493
  4502,  4504,  4507,  4510,  4511,  4565,  4570,  4585,  4589,  4612,  4668,  4669,  4681,  4792,  4829,  4973
  5077,  5090,  5186,  5773,  6013, 11706, 11834, 11848, 11868, 11887, 11896, 11908, 11992
*Surface, type=ELEMENT, name="_general contact_gcs0_10", internal
"__general contact_gcs0_10_S2", S2
"__general contact_gcs0_10_S1", S1
"__general contact_gcs0_10_S4", S4
"__general contact_gcs0_10_S3", S3
*Elset, elset="__general contact_gcs0_12_S2", internal, instance="layer 1/6-1"
 17049, 17657, 18013, 18014, 18017, 18018, 18026, 18031, 18034, 18084, 18085, 18097, 18110, 18121, 18123, 18125
 18127, 18136, 18168, 18169, 18177, 18192, 18201, 18224, 18259, 18265, 18445, 18749, 19081, 19639, 20079, 20080
 20207, 20216, 20262, 20263, 20325, 20360, 20439, 20454, 20485, 20634, 20654, 20655, 20739, 20870, 20876, 20992
 20993, 20999, 21002, 21004, 21006, 21012, 21020, 21023, 21024, 21026, 21030, 21034, 21036, 21041, 21045, 21046
 21048, 21049, 21050, 21053, 21056, 21058, 21059, 21060, 21061, 21064, 21068, 21070, 21074, 21076, 21079, 21085
 21091, 21095, 21099, 21133, 21135, 21136, 21154, 21371, 21372, 21375, 21380, 21387, 21390, 21394, 21400, 21402
 21404, 21405, 21406, 21408, 21410, 21412, 21414, 21416, 21420, 21422, 21430, 21431, 21432, 21433, 21439, 21440
 21441, 21444, 21447, 21450, 21458, 21462, 21481, 21485, 21497, 21504, 21505, 21507, 21508, 21509, 21517, 21520
 21527, 21531, 21535, 21540, 21543, 21581, 21598, 21606, 21613, 21616, 21711, 21735, 21736, 21739, 21741, 21745
 21790, 21808, 21809, 21810, 21916, 21973, 22635, 22817, 22838, 22952, 23189, 23331, 24495, 24676, 24711, 25018
 28827, 28833, 28837, 28839, 28841, 28842, 28851, 28861, 28867, 28870, 28875, 28877, 28880, 28883, 28884, 28885
 28888, 28913, 28914, 28919, 28923, 28926, 28928, 28929, 28930, 28933, 28954, 28955, 28959, 28961, 28964, 28970
 28971,
*Elset, elset="__general contact_gcs0_12_S4", internal, instance="layer 1/6-1"
 17656, 17789, 17790, 17792, 18012, 18016, 18030, 18101, 18102, 18129, 18131, 18132, 18134, 18157, 18161, 18162
 18195, 18203, 18204, 18205, 18223, 18250, 18266, 18282, 18320, 18440, 18893, 19082, 19533, 20037, 20040, 20308
 20326, 20387, 20464, 20484, 20623, 20761, 20782, 20841, 20849, 20875, 20995, 20997, 21001, 21008, 21010, 21011
 21013, 21014, 21018, 21019, 21021, 21022, 21025, 21027, 21033, 21035, 21040, 21043, 21047, 21052, 21062, 21072
 21075, 21081, 21083, 21084, 21087, 21088, 21096, 21097, 21100, 21101, 21379, 21392, 21393, 21396, 21397, 21398
 21409, 21411, 21417, 21418, 21424, 21438, 21442, 21446, 21448, 21449, 21452, 21456, 21460, 21479, 21487, 21491
 21494, 21498, 21503, 21506, 21512, 21518, 21523, 21524, 21530, 21532, 21534, 21539, 21542, 21547, 21588, 21601
 21604, 21612, 21615, 21685, 21803, 21930, 21935, 22948, 23287, 23507, 28823, 28825, 28828, 28838, 28878, 28879
 28890, 28916, 28917, 28918, 28921, 28924, 28968, 28972
*Elset, elset="__general contact_gcs0_12_S1", internal, instance="layer 1/6-1"
 17659, 18087, 18090, 18103, 18104, 18111, 18122, 18140, 18151, 18176, 18245, 18318, 18345, 18346, 18373, 18381
 20440, 20441, 20475, 20515, 20562, 20848, 20866, 21007, 21044, 21078, 21080, 21089, 21102, 21107, 21112, 21384
 21385, 21395, 21401, 21403, 21427, 21428, 21443, 21453, 21455, 21459, 21467, 21468, 21470, 21471, 21474, 21477
 21489, 21515, 21519, 21522, 21526, 21529, 21537, 21541, 21546, 21822, 21903, 22082, 22814, 28713, 28725, 28942
 28944, 29070, 29072
*Elset, elset="__general contact_gcs0_12_S3", internal, instance="layer 1/6-1"
 17784, 18033, 18114, 18128, 18222, 18240, 18281, 18309, 18321, 18347, 18348, 18365, 18382, 19196, 20038, 20130
 20334, 20399, 20426, 20455, 20586, 20740, 20760, 20865, 20874, 21000, 21005, 21015, 21028, 21031, 21038, 21042
 21054, 21066, 21071, 21093, 21103, 21108, 21109, 21110, 21134, 21373, 21377, 21381, 21382, 21386, 21388, 21407
 21423, 21451, 21454, 21463, 21466, 21475, 21476, 21480, 21484, 21486, 21493, 21495, 21510, 21528, 21536, 21545
 21708, 21794, 22072, 22389, 22421, 22434, 22825, 28712, 28835, 28856, 28915, 28973, 29069, 29071, 29073
*Surface, type=ELEMENT, name="_general contact_gcs0_12", internal
"__general contact_gcs0_12_S2", S2
"__general contact_gcs0_12_S4", S4
"__general contact_gcs0_12_S1", S1
"__general contact_gcs0_12_S3", S3
*Elset, elset="__general contact_gcs0_14_S1", internal, instance="layer 1/6-1"
 34519, 34520, 34581, 34585, 34594, 34641, 34715, 34716, 34761, 34762, 34763, 34765, 41314
*Elset, elset="__general contact_gcs0_14_S3", internal, instance="layer 1/6-1"
 34521, 34527, 34532, 34533, 34557, 34583, 34584, 34595, 34640, 34642, 34709
*Elset, elset="__general contact_gcs0_14_S2", internal, instance="layer 1/6-1"
 34575, 34764, 41295, 41312, 41315
*Elset, elset="__general contact_gcs0_14_S4", internal, instance="layer 1/6-1"
 34582, 41300
*Surface, type=ELEMENT, name="_general contact_gcs0_14", internal
"__general contact_gcs0_14_S1", S1
"__general contact_gcs0_14_S3", S3
"__general contact_gcs0_14_S2", S2
"__general contact_gcs0_14_S4", S4
*Elset, elset="__general contact_gcs0_16_S2", internal, instance="layer 1/6-1"
 34602, 34653, 34655, 34767, 34768
*Elset, elset="__general contact_gcs0_16_S3", internal, instance="layer 1/6-1"
 34604, 36464
*Elset, elset="__general contact_gcs0_16_S1", internal, instance="layer 1/6-1"
 34606, 34717, 35044
*Elset, elset="__general contact_gcs0_16_S4", internal, instance="layer 1/6-1"
 34619, 34648, 34649, 34650, 34656, 34674
*Surface, type=ELEMENT, name="_general contact_gcs0_16", internal
"__general contact_gcs0_16_S2", S2
"__general contact_gcs0_16_S3", S3
"__general contact_gcs0_16_S4", S4
"__general contact_gcs0_16_S1", S1
*Elset, elset="__general contact_gcs0_17_S1", internal, instance="layer 1/6-1"
 43225, 43228, 43245, 43259, 43453, 43455, 43456, 49631
*Elset, elset="__general contact_gcs0_17_S3", internal, instance="layer 1/6-1"
 43243, 43250, 43260, 43268, 43720, 49633
*Elset, elset="__general contact_gcs0_17_S2", internal, instance="layer 1/6-1"
 43244, 43246
*Surface, type=ELEMENT, name="_general contact_gcs0_17", internal
"__general contact_gcs0_17_S1", S1
"__general contact_gcs0_17_S3", S3
"__general contact_gcs0_17_S2", S2
*Elset, elset="__general contact_gcs0_19_S4", internal, instance="layer 1/6-1"
 43235, 43236, 43295, 43296, 43297, 43307, 43309, 43459, 48617
*Elset, elset="__general contact_gcs0_19_S2", internal, instance="layer 1/6-1"
 43262, 43269, 43279, 43280, 43288, 43300, 43405, 43406, 43461, 43462, 43463, 49637
*Elset, elset="__general contact_gcs0_19_S3", internal, instance="layer 1/6-1"
 43301, 43319, 43320, 43328, 43329, 43395
*Elset, elset="__general contact_gcs0_19_S1", internal, instance="layer 1/6-1"
 43318, 43321, 43359, 43360
*Surface, type=ELEMENT, name="_general contact_gcs0_19", internal
"__general contact_gcs0_19_S4", S4
"__general contact_gcs0_19_S2", S2
"__general contact_gcs0_19_S3", S3
"__general contact_gcs0_19_S1", S1
*End Assembly
** 
** MATERIALS
** 
*Material, name=elastomer
*Density
1175.,
*Hyperelastic, mooney-rivlin
<C10>,<C01>,0.
*Material, name=steel
*Density
7850.,
*Elastic
 2.1e+11, 0.3
** 
** INTERACTION PROPERTIES
** 
*Surface Interaction, name=frict
1.,
*Friction, slip tolerance=0.005
 1.045,
** 
** BOUNDARY CONDITIONS
** 
** Name: fix_all_nodes Type: Symmetry/Antisymmetry/Encastre
*Boundary
plate-1.all_nodes, XSYMM
** Name: fix_all_sides Type: Symmetry/Antisymmetry/Encastre
*Boundary
Set-2, XSYMM
** Name: fix_inner_layer Type: Symmetry/Antisymmetry/Encastre
*Boundary
Set-34, ENCASTRE
** 
** INTERACTIONS
** 
** Interaction: general contact
*Contact
*Contact Inclusions, ALL EXTERIOR
*Contact Property Assignment
 ,  , frict
*Surface Property Assignment, property=GEOMETRIC CORRECTION
"_general contact_gcs0_10", Circumferential, 0.04, 0.086054
"_general contact_gcs0_12", Circumferential, 0.04, 0.086054
"_general contact_gcs0_14", Circumferential, 0.04, 0.086054
"_general contact_gcs0_16", Circumferential, 0.04, 0.086054
"_general contact_gcs0_17", Circumferential, 0.04, 0.086054
"_general contact_gcs0_19", Circumferential, 0.04, 0.086054
** ----------------------------------------------------------------
** 
** STEP: press
** 
*Step, name=press, nlgeom=YES
*Static
0.01, 1., 1e-05, 0.01
** 
** BOUNDARY CONDITIONS
** 
** Name: press Type: Displacement/Rotation
*Boundary
Set-32, 1, 1
Set-32, 2, 2, 0.003
Set-32, 6, 6
** 
** OUTPUT REQUESTS
** 
*Restart, write, frequency=0
** 
** FIELD OUTPUT: F-Output-1
** 
*Output, field, variable=PRESELECT
** 
** HISTORY OUTPUT: H-Output-3
** 
*Output, history
*Contact Output
CAREA, CFT2
** 
** HISTORY OUTPUT: H-Output-1
** 
*Node Output, nset=plate-1.one_node
U2, 
** 
** HISTORY OUTPUT: H-Output-2
** 
*Node Output, nset=plate-1.under_node
CF2, RF2, U2
*End Step
