*Heading
** Job name: press Model name: Model-1
** Generated by: Abaqus/CAE 2022
*Preprint, echo=NO, model=NO, history=NO, contact=NO
**
** PARTS
**
*Part, name=layer
*Node
      1, -0.00300664804, 0.0599246211, 0.00100000005
      2, -0.00600574166, 0.0596986674, 0.00100000005
      3, -0.00898974482, 0.0593227148, 0.00100000005
      4, -0.0119511588, 0.0587977022, 0.00100000005
      5, -0.0148825441,  0.058124952, 0.00100000005
      6, -0.017776534, 0.0573061481, 0.00100000005
      7, -0.0206258595,  0.056343358, 0.00100000005
      8, -0.0234233569,  0.055238992, 0.00100000005
      9, -0.0261619985, 0.0539958328, 0.00100000005
     10, -0.0288349055, 0.0526169948, 0.00100000005
     11, -0.0314353593,   0.05110595, 0.00100000005
     12, -0.0339568257, 0.0494664945, 0.00100000005
     13, -0.0363929719, 0.0477027446, 0.00100000005
     14, -0.0387376696, 0.0458191335, 0.00100000005
     15, -0.0409850366, 0.0438203923, 0.00100000005
     16, -0.0431294218, 0.0417115465, 0.00100000005
     17, -0.0451654345, 0.0394978933, 0.00100000005
     18, -0.0470879637, 0.0371849947, 0.00100000005
     19, -0.0488921739,  0.034778662, 0.00100000005
     20, -0.0505735353, 0.0322849415, 0.00100000005
** ... 10362 like lines cut
*Element, type=C3D8RH
   1,  6510,  5318,  6123,  9723,  1319,   127,   932,  4532
   2,  7141,  5501,  8348,  7835,  1950,   310,  3157,  2644
   3,  7671,  5499,  7962,  7859,  2480,   308,  2771,  2668
   4,  7737,  7895,  7962,  5499,  2546,  2704,  2771,   308
   5,  7737,  5498,  8403,  7895,  2546,   307,  3212,  2704
   6,  9738,  8920,  8949,  9796,  4547,  3729,  3758,  4605
   7,  8360,  9860,  8510,  5496,  3169,  4669,  3319,   305
   8,  8623,  8414,  8210,  8838,  3432,  3223,  3019,  3647
   9,  5494,  8865,  8838,  8210,   303,  3674,  3647,  3019
  10,  8932,  9050, 10050,  6234,  3741,  3859,  4859,  1043
  11,  6233,  8751,  8097,  9906,  1042,  3560,  2906,  4715
  12,  7794,  8075, 10051,  5490,  2603,  2884,  4860,   299
  13,  7794,  5490,  8303,  8074,  2603,   299,  3112,  2883
  14,  5488,  9481,  9343,  9468,   297,  4290,  4152,  4277
  15,  9481,  9347,  9907,  9343,  4290,  4156,  4716,  4152
  16,  5404,  6679,  7440,  6230,   213,  1488,  2249,  1039
  17,  6976,  6231,  7463,  7440,  1785,  1040,  2272,  2249
  18,  7104,  6976,  6678,  5403,  1913,  1785,  1487,   212
  19,  8075,  7794,  7463,  6231,  2884,  2603,  2272,  1040
  20,  5251,  6378,  7375,  7291,    60,  1187,  2184,  2100
** ... 4763 like lines cut
*Nset, nset=Set-1, generate
     1,  10382,      1
*Elset, elset=Set-1, generate
    1,  4783,     1
*Nset, nset="contact surface"
  130,  131,  132,  133,  134,  135,  136,  137,  138,  139,  140,  141,  142,  143,  144,  145
  146,  147,  148,  149,  150,  151,  152,  153,  154,  155,  156,  157,  158,  159,  160,  161
  162,  163,  164,  165,  166,  167,  168,  169,  170,  171,  172,  173,  174,  175,  176,  177
  178,  179,  180,  181,  182,  183,  184,  185,  186,  187,  188,  189,  190,  191,  192,  193
  194,  195,  196,  197,  198,  199,  200,  201,  202,  203,  204,  205,  206,  207,  208,  209
  210,  211,  212,  213,  214,  215,  216,  217,  218,  219,  220,  221,  222,  223,  224,  225
  226,  227,  228,  229,  230,  231,  232,  233,  234,  235,  236,  237,  238,  239,  240,  241
  242,  243,  244,  245,  246,  247,  248,  249,  250,  251,  252,  253,  254,  255,  256,  257
  258,  259,  260,  261,  262,  263,  264,  265,  266,  267,  268,  269,  270,  271,  272,  273
  274,  275,  276,  277, 1325, 1326, 1327, 1328, 1329, 1330, 1331, 1332, 1333, 1334, 1335, 1336
 1337, 1338, 1339, 1340, 1341, 1342, 1343, 1344, 1345, 1346, 1347, 1348, 1349, 1350, 1351, 1352
 1353, 1354, 1355, 1356, 1357, 1358, 1359, 1360, 1361, 1362, 1363, 1364, 1365, 1366, 1367, 1368
 1369, 1370, 1371, 1372, 1373, 1374, 1375, 1376, 1377, 1378, 1379, 1380, 1381, 1382, 1383, 1384
 1385, 1386, 1387, 1388, 1389, 1390, 1391, 1392, 1393, 1394, 1395, 1396, 1397, 1398, 1399, 1400
 1401, 1402, 1403, 1404, 1405, 1406, 1407, 1408, 1409, 1410, 1411, 1412, 1413, 1414, 1415, 1416
 1417, 1418, 1419, 1420, 1421, 1422, 1423, 1424, 1425, 1426, 1427, 1428, 1429, 1430, 1431, 1432
 1433, 1434, 1435, 1436, 1437, 1438, 1439, 1440, 1441, 1442, 1443, 1444, 1445, 1446, 1447, 1448
 1449, 1450, 1451, 1452, 1453, 1454, 1455, 1456, 1457, 1458, 1459, 1460, 1461, 1462, 1463, 1464
 1465, 1466, 1467, 1468, 1469, 1470, 1471, 1472, 1473, 1474, 1475, 1476, 1477, 1478, 1479, 1480
 1481, 1482, 1483, 1484, 1485, 1486, 1487, 1488, 1489, 1490, 1491, 1492, 1493, 1494, 1495, 1496
** ... 35 like lines cut
*Elset, elset="contact surface"
   16,   18,   65,   76,   77,  117,  118,  119,  130,  131,  132,  133,  134,  147,  149,  150
  166,  167,  168,  169,  170,  182,  196,  197,  208,  210,  304,  324,  333,  334,  335,  336
  353,  354,  355,  394,  395,  397,  410,  412,  422,  489,  490,  491,  534,  535,  565,  566
  567,  575,  576,  585,  586,  614,  615,  618,  619,  621,  626,  627,  628,  633,  642,  644
  645,  656,  658,  662,  663,  664,  665,  666,  676,  681,  682,  688,  690,  691,  692,  693
  694,  695,  707,  710,  711,  712,  713,  714,  715,  721,  732,  733,  735,  742,  743,  744
  745,  756,  758,  764,  765,  766,  772,  774,  775,  776,  777,  778,  779,  793,  794,  798
  799,  800,  807,  808,  812,  813,  817,  823,  828,  829,  830,  833,  848,  849,  856,  857
  858,  860,  863,  867,  868,  871,  873,  881,  887,  889,  890,  891,  892,  893,  894,  896
  908,  909,  914,  916,  917,  918,  919,  920,  921,  922,  925,  933,  937,  940,  943,  947
  948,  950,  951,  954,  955,  957,  958,  959,  960,  966,  967,  969,  970,  971,  975,  976
  978,  989,  990,  998,  999, 1000, 1003, 1004, 1005, 1006, 1015, 1017, 1023, 1039, 1064, 1084
 1086, 1089, 1092, 1095, 1106, 1111, 1118, 1138, 1155, 1188, 1220, 1222, 1257, 1259, 1266, 1277
 1304, 1305, 1320, 1321, 1323, 1328, 1357, 1358, 1408, 1417, 1457, 1458, 1511, 1534, 1556, 1560
 1581, 1594, 1641, 1643, 1656, 1657, 1659, 1660, 1673, 1674, 1682, 1695, 1718, 1719, 1724, 1727
 1728, 1860, 1862, 1863, 1864, 1865, 1866, 1867, 1868, 1869, 1870, 1871, 1872, 1873, 1874, 1875
 1876, 1877, 1878, 1880, 1881, 1882, 1883, 1884, 1885, 1886, 1887, 1888, 1889, 1890, 1891, 1892
 1893, 1894, 1895, 1896, 1897, 1898, 1899, 1900, 1901, 1902, 1903, 1904, 1905, 1906, 1907, 1908
 1909, 1910, 1911, 1912, 1913, 1914, 1915, 1916, 1917, 1918, 1919, 1920, 1921, 1922, 1923, 1924
 1925, 1926, 1927, 1928, 1929, 1930, 1931, 1932, 1933, 1934, 1935, 1936, 1938, 1939, 1940, 1941
** ... 8 like lines cut
*Elset, elset="ele contact surface"
  585,  586,  614,  615,  618,  619,  989,  990,  998,  999, 1656, 1657, 1659, 1860, 1932, 1933
 1934, 1935, 1936, 1938, 2225
*Nset, nset="nodes contact"
  130,  201,  202,  203,  205,  206,  207, 1465, 1466, 1467, 1468, 1469, 1470, 1471, 1472, 1473
 1474, 1475, 1476, 5321, 5392, 5393, 5394, 5396, 5397, 5398, 6656, 6657, 6658, 6659, 6660, 6661
 6662, 6663, 6664, 6665, 6666, 6667
** Section: elastomer
*Solid Section, elset=Set-1, material=elastomer
,
*End Part
**  
*Part, name=plate
*Node
      1,           0., 0.0375000015, 0.00100000005
      2,           0., 0.0384999998, 0.00100000005
      3,           0., 0.0395000018, 0.00100000005
      4,           0., 0.0405000001, 0.00100000005
      5,           0., 0.0414999984, 0.00100000005
      6,           0., 0.0425000004, 0.00100000005
      7,           0., 0.0375000015,           0.
      8,           0., 0.0384999998,           0.
      9,           0., 0.0395000018,           0.
     10,           0., 0.0405000001,           0.
     11,           0., 0.0414999984,           0.
     12,           0., 0.0425000004,           0.
     13, 0.00100000005, 0.0375000015, 0.00100000005
     14, 0.00100000005, 0.0384999998, 0.00100000005
     15, 0.00100000005, 0.0395000018, 0.00100000005
     16, 0.00100000005, 0.0405000001, 0.00100000005
     17, 0.00100000005, 0.0414999984, 0.00100000005
     18, 0.00100000005, 0.0425000004, 0.00100000005
     19, 0.00100000005, 0.0375000015,           0.
     20, 0.00100000005, 0.0384999998,           0.
** ... 712 like lines cut
*Element, type=C3D8R
  1,  13,  14,  20,  19,   1,   2,   8,   7
  2,  14,  15,  21,  20,   2,   3,   9,   8
  3,  15,  16,  22,  21,   3,   4,  10,   9
  4,  16,  17,  23,  22,   4,   5,  11,  10
  5,  17,  18,  24,  23,   5,   6,  12,  11
  6,  25,  26,  32,  31,  13,  14,  20,  19
  7,  26,  27,  33,  32,  14,  15,  21,  20
  8,  27,  28,  34,  33,  15,  16,  22,  21
  9,  28,  29,  35,  34,  16,  17,  23,  22
 10,  29,  30,  36,  35,  17,  18,  24,  23
 11,  37,  38,  44,  43,  25,  26,  32,  31
 12,  38,  39,  45,  44,  26,  27,  33,  32
 13,  39,  40,  46,  45,  27,  28,  34,  33
 14,  40,  41,  47,  46,  28,  29,  35,  34
 15,  41,  42,  48,  47,  29,  30,  36,  35
 16,  49,  50,  56,  55,  37,  38,  44,  43
 17,  50,  51,  57,  56,  38,  39,  45,  44
 18,  51,  52,  58,  57,  39,  40,  46,  45
 19,  52,  53,  59,  58,  40,  41,  47,  46
 20,  53,  54,  60,  59,  41,  42,  48,  47
** ... 280 like lines cut
*Nset, nset=Set-1, generate
   1,  732,    1
*Elset, elset=Set-1, generate
   1,  300,    1
*Nset, nset=contact_surface, generate
   6,  732,    6
*Elset, elset=contact_surface, generate
   5,  300,    5
*Nset, nset=all_nodes, generate
   1,  732,    1
*Nset, nset=one_node
 366,
** Section: steel
*Solid Section, elset=Set-1, material=steel
,
*End Part
**  
**
** ASSEMBLY
**
*Assembly, name=Assembly
**  
*Instance, name=plate-1, part=plate
*End Instance
**  
*Instance, name=layer-1, part=layer
        0.03,       0.1125,           0.
*End Instance
**  
*Nset, nset=Set-2, instance=layer-1
    1,    2,    3,    4,    5,    6,    7,    8,    9,   10,   11,   12,   13,   14,   15,   16
   17,   18,   19,   20,   21,   22,   23,   24,   25,   26,   27,   28,   29,   30,   31,   32
   33,   34,   35,   36,   37,   38,   39,   40,   41,   42,   43,   44,   45,   46,   47,   48
   49,   50,   51,   52,   53,   54,   55,   56,   57,   58,   59,   60,   61,   62,   63,   64
   65,   66,   67,   68,   69,   70,   71,   72,   73,   74,   75,   76,   77,   78,   79,   80
   81,   82,   83,   84,   85,   86,   87,   88,   89,   90,   91,   92,   93,   94,   95,   96
   97,   98,   99,  100,  101,  102,  103,  104,  105,  106,  107,  108,  109,  110,  111,  112
  113,  114,  115,  116,  117,  118,  119,  120,  121,  122,  123,  124,  125,  126, 1069, 1070
 1071, 1072, 1073, 1074, 1075, 1076, 1077, 1078, 1079, 1080, 1081, 1082, 1083, 1084, 1085, 1086
 1087, 1088, 1089, 1090, 1091, 1092, 1093, 1094, 1095, 1096, 1097, 1098, 1099, 1100, 1101, 1102
 1103, 1104, 1105, 1106, 1107, 1108, 1109, 1110, 1111, 1112, 1113, 1114, 1115, 1116, 1117, 1118
 1119, 1120, 1121, 1122, 1123, 1124, 1125, 1126, 1127, 1128, 1129, 1130, 1131, 1132, 1133, 1134
 1135, 1136, 1137, 1138, 1139, 1140, 1141, 1142, 1143, 1144, 1145, 1146, 1147, 1148, 1149, 1150
 1151, 1152, 1153, 1154, 1155, 1156, 1157, 1158, 1159, 1160, 1161, 1162, 1163, 1164, 1165, 1166
 1167, 1168, 1169, 1170, 1171, 1172, 1173, 1174, 1175, 1176, 1177, 1178, 1179, 1180, 1181, 1182
 1183, 1184, 1185, 1186, 1187, 1188, 1189, 1190, 1191, 1192, 1193, 1194, 1195, 1196, 1197, 1198
 1199, 1200, 1201, 1202, 1203, 1204, 1205, 1206, 1207, 1208, 1209, 1210, 1211, 1212, 1213, 1214
 1215, 1216, 1217, 1218, 1219, 1220, 1221, 1222, 1223, 1224, 1225, 1226, 1227, 1228, 1229, 1230
 1231, 1232, 1233, 1234, 1235, 1236, 1237, 1238, 1239, 1240, 1241, 1242, 1243, 1244, 1245, 1246
 1247, 1248, 1249, 1250, 1251, 1252, 1253, 1254, 1255, 1256, 1257, 1258, 1259, 1260, 1261, 1262
** ... 27 like lines cut
*Elset, elset=Set-2, instance=layer-1
   20,   22,   23,   25,   27,   28,   29,   35,   36,   45,   46,   47,   52,   54,   56,   58
   59,   85,   91,   92,   93,   94,   96,   97,   99,  109,  111,  124,  138,  142,  143,  155
  158,  175,  176,  177,  190,  191,  201,  203,  204,  220,  221,  223,  225,  226,  237,  238
  241,  243,  247,  248,  254,  260,  264,  266,  267,  268,  269,  270,  272,  280,  281,  282
  284,  289,  290,  294,  298,  299,  305,  306,  312,  318,  326,  328,  329,  343,  344,  358
  360,  361,  363,  364,  365,  366,  378,  379,  380,  381,  382,  384,  385,  387,  389,  401
  402,  403,  404,  416,  417,  418,  428,  432,  439,  441,  443,  450,  451,  459,  460,  461
  462,  463,  466,  470,  481,  482,  484,  494,  495,  496,  501,  507,  508,  511,  514,  515
  516,  527,  529,  543,  545,  550,  553,  555,  556,  557,  569,  570,  571,  592,  593,  594
  639,  675,  720,  728,  740,  741,  771,  785,  786,  822,  904, 1011, 1045, 1046, 1048, 1080
 1081, 1096, 1108, 1109, 1126, 1140, 1143, 1145, 1158, 1184, 1191, 1200, 1207, 1223, 1225, 1235
 1249, 1252, 1293, 1296, 1297, 1309, 1314, 1315, 1352, 1360, 1380, 1387, 1388, 1419, 1449, 1454
 1463, 1469, 1470, 1487, 1515, 1516, 1552, 1567, 1570, 1577, 1582, 1583, 1600, 1612, 1613, 1614
 1615, 1623, 1720, 1722, 1729, 1730, 1731, 1732, 1733, 1734, 1735, 1736, 1738, 1739, 1740, 1741
 1742, 1743, 1744, 1745, 1746, 1747, 1748, 1749, 1750, 1751, 1752, 1753, 1754, 1756, 1757, 1758
 1759, 1760, 1761, 1762, 1763, 1764, 1765, 1766, 1767, 1768, 1769, 1770, 1771, 1772, 1773, 1774
 1775, 1776, 1777, 1778, 1779, 1780, 1781, 1782, 1783, 1784, 1785, 1786, 1787, 1788, 1789, 1790
 1791, 1792, 1793, 1794, 1795, 1796, 1797, 1798, 1799, 1800, 1801, 1802, 1803, 1804, 1805, 1806
 1807, 1808, 1809, 1810, 1811, 1812, 1813, 1815, 1816, 1817, 1818, 1819, 1820, 1821, 1822, 1823
 1824, 1825, 1826, 1827, 1828, 1829, 1830, 1831, 1832, 1833, 1834, 1835, 1836, 1837, 1838, 1839
** ... 4 like lines cut
*Nset, nset=Set-3, instance=plate-1, generate
   6,  732,    6
*Elset, elset=Set-3, instance=plate-1, generate
   5,  300,    5
*Nset, nset=Set-4, instance=plate-1, generate
   6,  732,    6
*Elset, elset=Set-4, instance=plate-1, generate
   5,  300,    5
*Nset, nset=Set-5, instance=plate-1, generate
   6,  732,    6
*Elset, elset=Set-5, instance=plate-1, generate
   5,  300,    5
*Nset, nset=Set-6, instance=plate-1, generate
   6,  732,    6
*Elset, elset=Set-6, instance=plate-1, generate
   5,  300,    5
*Nset, nset=Set-7, instance=plate-1, generate
   6,  732,    6
*Elset, elset=Set-7, instance=plate-1, generate
   5,  300,    5
*Nset, nset=Set-8, instance=plate-1, generate
   6,  732,    6
*Elset, elset=Set-8, instance=plate-1, generate
   5,  300,    5
*Nset, nset=Set-9, instance=plate-1, generate
   6,  732,    6
*Elset, elset=Set-9, instance=plate-1, generate
   5,  300,    5
*Nset, nset=m_Set-1, instance=layer-1
 130,
*Surface, type=NODE, name=m_Set-1_CNS_, internal
m_Set-1, 1.
*Surface, type=NODE, name=plate-1_all_nodes_CNS_, internal
plate-1.all_nodes, 1.
** Constraint: Constraint-1
*Tie, name=Constraint-1, adjust=yes
plate-1_all_nodes_CNS_, m_Set-1_CNS_
*Elset, elset=__interaction_general_gcs0_8_S3, internal, instance=layer-1
   16,  196,  197,  333,  336,  397,  410,  412,  422,  565,  566,  575,  614,  676,  688,  690
  693,  694,  712,  715,  745,  800,  807,  808,  813,  848,  856,  858,  860,  892,  917,  960
  966,  967,  970,  976, 1015, 1323, 1328, 1357, 1358, 1511, 1534, 1556, 1659, 1673, 1695, 1860
 1863, 1865, 1866, 1868, 1869, 1871, 1888, 1889, 1890, 1892, 1893, 1894, 1897, 1898, 1900, 1903
 1905, 1906, 1908, 1927, 1928, 1929, 1930, 1932, 1933, 1935, 1936, 1938, 1943, 1945, 1946, 1948
 1950, 2012, 2013, 2014, 2017, 2082, 2087, 2124, 2130, 2139, 2151, 2204, 2216, 2219, 2231, 2243
 2275, 2284
*Elset, elset=__interaction_general_gcs0_8_S5, internal, instance=layer-1
   18,  208,  210,  304,  324,  334,  335,  394,  395,  567,  576,  585,  615,  618,  619,  627
  691,  692,  695,  707,  710,  711,  713,  714,  721,  812,  817,  823,  828,  829,  830,  857
  894,  947,  969,  971,  975, 1017, 1656, 1657, 1660, 1674, 1682, 1718, 1728, 1862, 1864, 1867
 1870, 1891, 1895, 1896, 1899, 1901, 1902, 1904, 1907, 1931, 1934, 1939, 1942, 1944, 1947, 2015
 2018, 2019, 2063, 2102, 2110, 2112, 2117, 2123, 2221, 2225, 2244, 2265, 2266, 2276
*Elset, elset=__interaction_general_gcs0_8_S6, internal, instance=layer-1
   65,  117,  118,  130,  131,  132,  133,  134,  166,  168,  170,  353,  354,  586,  621,  633
  642,  656,  663,  666,  681,  735,  743,  744,  758,  766,  775,  776,  799,  833,  849,  867
  868,  871,  881,  887,  889,  890,  916,  918,  921,  922,  925,  937,  940,  948,  955,  978
  989,  998, 1000, 1003, 1039, 1089, 1111, 1138, 1155, 1220, 1257, 1305, 1320, 1321, 1408, 1457
 1581, 1641, 1872, 1873, 1875, 1876, 1882, 1883, 1909, 1910, 1911, 1912, 1915, 1918, 1920, 1923
 1926, 1949, 1951, 1954, 1955, 1956, 1957, 1960, 1964, 1970, 1971, 1975, 1977, 1985, 1987, 1989
 1990, 1992, 1993, 1995, 1997, 1999, 2002, 2004, 2007, 2009, 2011
*Elset, elset=__interaction_general_gcs0_8_S4, internal, instance=layer-1
   76,   77,  119,  147,  149,  150,  167,  169,  182,  355,  489,  490,  491,  534,  535,  626
  628,  644,  645,  658,  662,  664,  665,  682,  732,  733,  742,  756,  764,  765,  772,  774
  777,  778,  779,  793,  794,  798,  863,  873,  891,  893,  896,  908,  909,  914,  919,  920
  933,  943,  950,  951,  954,  957,  958,  959,  990,  999, 1004, 1005, 1006, 1023, 1064, 1084
 1086, 1092, 1095, 1106, 1118, 1188, 1222, 1259, 1266, 1277, 1304, 1417, 1458, 1560, 1594, 1643
 1719, 1724, 1727, 1874, 1877, 1878, 1880, 1881, 1884, 1885, 1886, 1887, 1913, 1914, 1916, 1917
 1919, 1921, 1922, 1924, 1925, 1940, 1941, 1952, 1953, 1958, 1959, 1961, 1962, 1963, 1965, 1966
 1967, 1968, 1969, 1972, 1973, 1974, 1976, 1979, 1981, 1982, 1983, 1984, 1986, 1988, 1991, 1994
 1996, 1998, 2000, 2001, 2003, 2005, 2006, 2008, 2010, 2035, 2036, 2040, 2042, 2046, 2049, 2050
 2052, 2056, 2088, 2095, 2098, 2107, 2132, 2137, 2145, 2176, 2183, 2209, 2264
*Surface, type=ELEMENT, name=_interaction_general_gcs0_8, internal
__interaction_general_gcs0_8_S3, S3
__interaction_general_gcs0_8_S5, S5
__interaction_general_gcs0_8_S6, S6
__interaction_general_gcs0_8_S4, S4
*Elset, elset=__interaction_general_gcs0_9_S3, internal, instance=layer-1
   20,   22,   23,   29,   54,   85,   99,  401,  402,  404,  416,  417,  418,  439,  459,  460
  463,  470,  508,  514,  529,  543,  545,  550,  639,  675, 1515, 1577, 1583, 1612, 1770, 1771
 1773, 1774, 1788, 1790, 1792, 1801, 1802, 1803, 1805, 1806, 1807, 1809, 1810, 1812, 1813, 1815
 1817, 1818, 1819, 1820, 1821, 1822, 1834, 1853, 2288, 2378, 2384, 2393, 2397, 2414, 2444, 2449
 2493,
*Elset, elset=__interaction_general_gcs0_9_S5, internal, instance=layer-1
   25,   27,   28,   47,   52,   97,  111,  403,  428,  441,  443,  461,  462,  466,  481,  482
  484,  494,  495,  496,  501,  507,  511,  515,  516,  527,  553,  555,  556,  557, 1080, 1126
 1140, 1158, 1487, 1516, 1552, 1567, 1570, 1582, 1613, 1615, 1769, 1772, 1787, 1789, 1791, 1804
 1808, 1811, 1816, 1833, 2305, 2306, 2366, 2410, 2425, 2434, 2438, 2487, 2504, 2505
*Elset, elset=__interaction_general_gcs0_9_S4, internal, instance=layer-1
   35,   92,   93,   94,  138,  143,  155,  158,  176,  177,  190,  191,  204,  225,  243,  267
  272,  280,  281,  284,  289,  290,  312,  328,  343,  364,  379,  381,  387,  389,  451,  570
  571,  594,  728,  741,  771,  822, 1011, 1081, 1096, 1108, 1143, 1191, 1225, 1235, 1293, 1419
 1469, 1470, 1614, 1720, 1722, 1729, 1731, 1732, 1734, 1735, 1738, 1739, 1740, 1741, 1743, 1746
 1747, 1749, 1750, 1752, 1753, 1756, 1759, 1760, 1762, 1764, 1765, 1766, 1768, 1775, 1778, 1780
 1781, 1783, 1785, 1786, 1795, 1798, 1799, 1823, 1825, 1828, 1829, 1831, 1832, 1836, 1838, 1841
 1843, 1846, 1847, 1850, 1851, 2289, 2291, 2296, 2304, 2311, 2312, 2316, 2318, 2329, 2330, 2342
 2359, 2396, 2429, 2446, 2459, 2463, 2464, 4562, 4563
*Elset, elset=__interaction_general_gcs0_9_S6, internal, instance=layer-1
   36,   45,   46,   56,   58,   59,   91,   96,  109,  124,  142,  175,  201,  203,  220,  221
  223,  226,  237,  238,  241,  247,  248,  254,  260,  264,  266,  268,  269,  270,  282,  294
  298,  299,  305,  306,  318,  326,  329,  344,  358,  360,  361,  363,  365,  366,  378,  380
  382,  384,  385,  432,  450,  569,  592,  593,  720,  740,  785,  786,  904, 1045, 1046, 1048
 1109, 1145, 1184, 1200, 1207, 1223, 1249, 1252, 1296, 1297, 1309, 1314, 1315, 1352, 1360, 1380
 1387, 1388, 1449, 1454, 1463, 1600, 1623, 1730, 1733, 1736, 1742, 1744, 1745, 1748, 1751, 1754
 1757, 1758, 1761, 1763, 1767, 1776, 1777, 1779, 1782, 1784, 1793, 1794, 1796, 1797, 1800, 1824
 1826, 1827, 1830, 1835, 1837, 1839, 1840, 1842, 1844, 1845, 1848, 1849, 1852, 2386, 2391, 4598
*Surface, type=ELEMENT, name=_interaction_general_gcs0_9, internal
__interaction_general_gcs0_9_S3, S3
__interaction_general_gcs0_9_S5, S5
__interaction_general_gcs0_9_S4, S4
__interaction_general_gcs0_9_S6, S6
*End Assembly
** 
** MATERIALS
** 
*Material, name=elastomer
*Density
1175.,
*Hyperelastic, neo hooke
 1.2e+06,0.
*Material, name=steel
*Density
7850.,
*Elastic
 2.1e+11, 0.3
** 
** INTERACTION PROPERTIES
** 
*Surface Interaction, name=frict
1.,
*Friction, slip tolerance=0.005
 0.3,
** 
** BOUNDARY CONDITIONS
** 
** Name: fix all nodes Type: Symmetry/Antisymmetry/Encastre
*Boundary
plate-1.all_nodes, XSYMM
** Name: fix inner layer Type: Symmetry/Antisymmetry/Encastre
*Boundary
Set-2, ENCASTRE
** 
** INTERACTIONS
** 
** Interaction: interaction_general
*Contact
*Contact Inclusions, ALL EXTERIOR
*Contact Property Assignment
 ,  , frict
*Surface Property Assignment, property=GEOMETRIC CORRECTION
_interaction_general_gcs0_8, Circumferential, 0.03, 0.1125, 0.,  0.03, 0.1125, 1.
_interaction_general_gcs0_9, Circumferential, 0.03, 0.1125, 0.,  0.03, 0.1125, 1.
** ----------------------------------------------------------------
** 
** STEP: step1000
** 
*Step, name=step1000, nlgeom=YES, inc=10
*Static
0.01, 0.1, 1e-06, 0.01
** 
** BOUNDARY CONDITIONS
** 
** Name: step1000 Type: Displacement/Rotation
*Boundary
Set-3, 1, 1
Set-3, 2, 2, 0.000273
Set-3, 3, 3
Set-3, 4, 4
Set-3, 5, 5
Set-3, 6, 6
** 
** OUTPUT REQUESTS
** 
*Restart, write, frequency=0
** 
** FIELD OUTPUT: F-Output-1
** 
*Output, field
*Node Output
CF, RF, U
*Element Output, directions=YES
LE, PE, PEEQ, PEMAG, S
*Contact Output
CDISP, CFORCE, CSTRESS
** 
** HISTORY OUTPUT: H-Output-4
** 
*Output, history
*Contact Output
CAREA, CFT1, CFT2, CFT3, CFTM
** 
** HISTORY OUTPUT: H-Output-3
** 
*Contact Output, nset=layer-1."contact surface"
CAREA, CFT1, CFT2, CFT3, CFTM
** 
** HISTORY OUTPUT: H-Output-1
** 
*Contact Output, nset=plate-1.contact_surface
CAREA, CFT1, CFT2, CFT3, CFTM
** 
** HISTORY OUTPUT: H-Output-5
** 
*Contact Output, nset=layer-1."nodes contact"
CFT2, 
** 
** HISTORY OUTPUT: H-Output-2
** 
*Node Output, nset=plate-1.one_node
U2, 
*End Step
** ----------------------------------------------------------------
** 
** STEP: step1250
** 
*Step, name=step1250, nlgeom=YES, inc=10
*Static
0.01, 0.1, 1e-06, 0.01
** 
** BOUNDARY CONDITIONS
** 
** Name: fix all nodes Type: Symmetry/Antisymmetry/Encastre
*Boundary, op=NEW
plate-1.all_nodes, XSYMM
** Name: fix inner layer Type: Symmetry/Antisymmetry/Encastre
*Boundary, op=NEW
Set-2, ENCASTRE
** Name: step1000 Type: Displacement/Rotation
*Boundary, op=NEW
** Name: step1250 Type: Displacement/Rotation
*Boundary, op=NEW
Set-4, 1, 1
Set-4, 2, 2, 0.000308
Set-4, 3, 3
Set-4, 4, 4
Set-4, 5, 5
Set-4, 6, 6
** 
** OUTPUT REQUESTS
** 
*Restart, write, frequency=0
** 
** FIELD OUTPUT: F-Output-1
** 
*Output, field
*Node Output
CF, RF, U
*Element Output, directions=YES
LE, PE, PEEQ, PEMAG, S
*Contact Output
CDISP, CFORCE, CSTRESS
** 
** HISTORY OUTPUT: H-Output-4
** 
*Output, history
*Contact Output
CAREA, CFT1, CFT2, CFT3, CFTM
** 
** HISTORY OUTPUT: H-Output-3
** 
*Contact Output, nset=layer-1."contact surface"
CAREA, CFT1, CFT2, CFT3, CFTM
** 
** HISTORY OUTPUT: H-Output-1
** 
*Contact Output, nset=plate-1.contact_surface
CAREA, CFT1, CFT2, CFT3, CFTM
** 
** HISTORY OUTPUT: H-Output-5
** 
*Contact Output, nset=layer-1."nodes contact"
CFT2, 
** 
** HISTORY OUTPUT: H-Output-2
** 
*Node Output, nset=plate-1.one_node
U2, 
*End Step
** ----------------------------------------------------------------
** 
** STEP: step1500
** 
*Step, name=step1500, nlgeom=YES, inc=10
*Static
0.01, 0.1, 1e-06, 0.01
** 
** BOUNDARY CONDITIONS
** 
** Name: fix all nodes Type: Symmetry/Antisymmetry/Encastre
*Boundary, op=NEW
plate-1.all_nodes, XSYMM
** Name: fix inner layer Type: Symmetry/Antisymmetry/Encastre
*Boundary, op=NEW
Set-2, ENCASTRE
** Name: step1250 Type: Displacement/Rotation
*Boundary, op=NEW
** Name: step1500 Type: Displacement/Rotation
*Boundary, op=NEW
Set-5, 1, 1
Set-5, 2, 2, 0.000343
Set-5, 3, 3
Set-5, 4, 4
Set-5, 5, 5
Set-5, 6, 6
** 
** OUTPUT REQUESTS
** 
*Restart, write, frequency=0
** 
** FIELD OUTPUT: F-Output-1
** 
*Output, field
*Node Output
CF, RF, U
*Element Output, directions=YES
LE, PE, PEEQ, PEMAG, S
*Contact Output
CDISP, CFORCE, CSTRESS
** 
** HISTORY OUTPUT: H-Output-4
** 
*Output, history
*Contact Output
CAREA, CFT1, CFT2, CFT3, CFTM
** 
** HISTORY OUTPUT: H-Output-3
** 
*Contact Output, nset=layer-1."contact surface"
CAREA, CFT1, CFT2, CFT3, CFTM
** 
** HISTORY OUTPUT: H-Output-1
** 
*Contact Output, nset=plate-1.contact_surface
CAREA, CFT1, CFT2, CFT3, CFTM
** 
** HISTORY OUTPUT: H-Output-5
** 
*Contact Output, nset=layer-1."nodes contact"
CFT2, 
** 
** HISTORY OUTPUT: H-Output-2
** 
*Node Output, nset=plate-1.one_node
U2, 
*End Step
** ----------------------------------------------------------------
** 
** STEP: step1750
** 
*Step, name=step1750, nlgeom=YES, inc=10
*Static
0.01, 0.1, 1e-06, 0.01
** 
** BOUNDARY CONDITIONS
** 
** Name: fix all nodes Type: Symmetry/Antisymmetry/Encastre
*Boundary, op=NEW
plate-1.all_nodes, XSYMM
** Name: fix inner layer Type: Symmetry/Antisymmetry/Encastre
*Boundary, op=NEW
Set-2, ENCASTRE
** Name: step1500 Type: Displacement/Rotation
*Boundary, op=NEW
** Name: step1750 Type: Displacement/Rotation
*Boundary, op=NEW
Set-6, 1, 1
Set-6, 2, 2, 0.000392
Set-6, 3, 3
Set-6, 4, 4
Set-6, 5, 5
Set-6, 6, 6
** 
** OUTPUT REQUESTS
** 
*Restart, write, frequency=0
** 
** FIELD OUTPUT: F-Output-1
** 
*Output, field
*Node Output
CF, RF, U
*Element Output, directions=YES
LE, PE, PEEQ, PEMAG, S
*Contact Output
CDISP, CFORCE, CSTRESS
** 
** HISTORY OUTPUT: H-Output-4
** 
*Output, history
*Contact Output
CAREA, CFT1, CFT2, CFT3, CFTM
** 
** HISTORY OUTPUT: H-Output-3
** 
*Contact Output, nset=layer-1."contact surface"
CAREA, CFT1, CFT2, CFT3, CFTM
** 
** HISTORY OUTPUT: H-Output-1
** 
*Contact Output, nset=plate-1.contact_surface
CAREA, CFT1, CFT2, CFT3, CFTM
** 
** HISTORY OUTPUT: H-Output-5
** 
*Contact Output, nset=layer-1."nodes contact"
CFT2, 
** 
** HISTORY OUTPUT: H-Output-2
** 
*Node Output, nset=plate-1.one_node
U2, 
*End Step
** ----------------------------------------------------------------
** 
** STEP: step2000
** 
*Step, name=step2000, nlgeom=YES, inc=10
*Static
0.01, 0.1, 1e-06, 0.01
** 
** BOUNDARY CONDITIONS
** 
** Name: fix all nodes Type: Symmetry/Antisymmetry/Encastre
*Boundary, op=NEW
plate-1.all_nodes, XSYMM
** Name: fix inner layer Type: Symmetry/Antisymmetry/Encastre
*Boundary, op=NEW
Set-2, ENCASTRE
** Name: step1750 Type: Displacement/Rotation
*Boundary, op=NEW
** Name: step2000 Type: Displacement/Rotation
*Boundary, op=NEW
Set-7, 1, 1
Set-7, 2, 2, 0.000423
Set-7, 3, 3
Set-7, 4, 4
Set-7, 5, 5
Set-7, 6, 6
** 
** OUTPUT REQUESTS
** 
*Restart, write, frequency=0
** 
** FIELD OUTPUT: F-Output-1
** 
*Output, field
*Node Output
CF, RF, U
*Element Output, directions=YES
LE, PE, PEEQ, PEMAG, S
*Contact Output
CDISP, CFORCE, CSTRESS
** 
** HISTORY OUTPUT: H-Output-4
** 
*Output, history
*Contact Output
CAREA, CFT1, CFT2, CFT3, CFTM
** 
** HISTORY OUTPUT: H-Output-3
** 
*Contact Output, nset=layer-1."contact surface"
CAREA, CFT1, CFT2, CFT3, CFTM
** 
** HISTORY OUTPUT: H-Output-1
** 
*Contact Output, nset=plate-1.contact_surface
CAREA, CFT1, CFT2, CFT3, CFTM
** 
** HISTORY OUTPUT: H-Output-5
** 
*Contact Output, nset=layer-1."nodes contact"
CFT2, 
** 
** HISTORY OUTPUT: H-Output-2
** 
*Node Output, nset=plate-1.one_node
U2, 
*End Step
** ----------------------------------------------------------------
** 
** STEP: step3000
** 
*Step, name=step3000, nlgeom=YES, inc=10
*Static
0.01, 0.1, 1e-06, 0.01
** 
** BOUNDARY CONDITIONS
** 
** Name: fix all nodes Type: Symmetry/Antisymmetry/Encastre
*Boundary, op=NEW
plate-1.all_nodes, XSYMM
** Name: fix inner layer Type: Symmetry/Antisymmetry/Encastre
*Boundary, op=NEW
Set-2, ENCASTRE
** Name: step2000 Type: Displacement/Rotation
*Boundary, op=NEW
** Name: step3000 Type: Displacement/Rotation
*Boundary, op=NEW
Set-8, 1, 1
Set-8, 2, 2, 0.000513
Set-8, 3, 3
Set-8, 4, 4
Set-8, 5, 5
Set-8, 6, 6
** 
** OUTPUT REQUESTS
** 
*Restart, write, frequency=0
** 
** FIELD OUTPUT: F-Output-1
** 
*Output, field
*Node Output
CF, RF, U
*Element Output, directions=YES
LE, PE, PEEQ, PEMAG, S
*Contact Output
CDISP, CFORCE, CSTRESS
** 
** HISTORY OUTPUT: H-Output-4
** 
*Output, history
*Contact Output
CAREA, CFT1, CFT2, CFT3, CFTM
** 
** HISTORY OUTPUT: H-Output-3
** 
*Contact Output, nset=layer-1."contact surface"
CAREA, CFT1, CFT2, CFT3, CFTM
** 
** HISTORY OUTPUT: H-Output-1
** 
*Contact Output, nset=plate-1.contact_surface
CAREA, CFT1, CFT2, CFT3, CFTM
** 
** HISTORY OUTPUT: H-Output-5
** 
*Contact Output, nset=layer-1."nodes contact"
CFT2, 
** 
** HISTORY OUTPUT: H-Output-2
** 
*Node Output, nset=plate-1.one_node
U2, 
*End Step
** ----------------------------------------------------------------
** 
** STEP: step4000
** 
*Step, name=step4000, nlgeom=YES, inc=10
*Static
0.01, 0.1, 1e-06, 0.01
** 
** BOUNDARY CONDITIONS
** 
** Name: fix all nodes Type: Symmetry/Antisymmetry/Encastre
*Boundary, op=NEW
plate-1.all_nodes, XSYMM
** Name: fix inner layer Type: Symmetry/Antisymmetry/Encastre
*Boundary, op=NEW
Set-2, ENCASTRE
** Name: step3000 Type: Displacement/Rotation
*Boundary, op=NEW
** Name: step4000 Type: Displacement/Rotation
*Boundary, op=NEW
Set-9, 1, 1
Set-9, 2, 2, 0.000637
Set-9, 3, 3
Set-9, 4, 4
Set-9, 5, 5
Set-9, 6, 6
** 
** OUTPUT REQUESTS
** 
*Restart, write, frequency=0
** 
** FIELD OUTPUT: F-Output-1
** 
*Output, field
*Node Output
CF, RF, U
*Element Output, directions=YES
LE, PE, PEEQ, PEMAG, S
*Contact Output
CDISP, CFORCE, CSTRESS
** 
** HISTORY OUTPUT: H-Output-4
** 
*Output, history
*Contact Output
CAREA, CFT1, CFT2, CFT3, CFTM
** 
** HISTORY OUTPUT: H-Output-3
** 
*Contact Output, nset=layer-1."contact surface"
CAREA, CFT1, CFT2, CFT3, CFTM
** 
** HISTORY OUTPUT: H-Output-1
** 
*Contact Output, nset=plate-1.contact_surface
CAREA, CFT1, CFT2, CFT3, CFTM
** 
** HISTORY OUTPUT: H-Output-5
** 
*Contact Output, nset=layer-1."nodes contact"
CFT2, 
** 
** HISTORY OUTPUT: H-Output-2
** 
*Node Output, nset=plate-1.one_node
U2, 
*End Step
